data_Te-vacancy
_audit_creation_date              2025-02-24
_audit_creation_method            'Materials Studio'
_symmetry_space_group_name_H-M    'P1'
_symmetry_Int_Tables_number       1
_symmetry_cell_setting            triclinic
loop_
_symmetry_equiv_pos_as_xyz
  x,y,z
_cell_length_a                    10.1502
_cell_length_b                    10.1502
_cell_length_c                    34.9384
_cell_angle_alpha                 90.0001
_cell_angle_beta                  90.0000
_cell_angle_gamma                 119.9999
loop_
_atom_site_label
_atom_site_type_symbol
_atom_site_fract_x
_atom_site_fract_y
_atom_site_fract_z
_atom_site_U_iso_or_equiv
_atom_site_adp_type
_atom_site_occupancy
Mo1    Mo    0.16686   0.00008   0.60979   0.00000  Uiso   1.00
Mo2    Mo    0.16695   0.50014   0.60976   0.00000  Uiso   1.00
Mo3    Mo    0.66690   0.00014   0.60975   0.00000  Uiso   1.00
Mo4    Mo    0.66681   0.50013   0.60980   0.00000  Uiso   1.00
Mo5    Mo    0.33360   0.33354   0.60975   0.00000  Uiso   1.00
Mo6    Mo    0.33373   0.83356   0.60978   0.00000  Uiso   1.00
Mo7    Mo    0.83367   0.33353   0.60982   0.00000  Uiso   1.00
Mo8    Mo    0.83360   0.83347   0.60974   0.00000  Uiso   1.00
Mo9    Mo    0.00015   0.16667   0.60977   0.00000  Uiso   1.00
Mo10   Mo    0.00031   0.66682   0.60980   0.00000  Uiso   1.00
Mo11   Mo    0.50029   0.16691   0.60978   0.00000  Uiso   1.00
Mo12   Mo    0.50020   0.66675   0.60974   0.00000  Uiso   1.00
Si1    Si    0.16692   0.16680   0.69601   0.00000  Uiso   1.00
Si2    Si    0.16693   0.66682   0.69601   0.00000  Uiso   1.00
Si3    Si    0.66688   0.16679   0.69601   0.00000  Uiso   1.00
Si4    Si    0.66694   0.66682   0.69601   0.00000  Uiso   1.00
Si5    Si    0.16765   0.16740   0.52368   0.00000  Uiso   1.00
Si6    Si    0.16752   0.66736   0.52365   0.00000  Uiso   1.00
Si7    Si    0.66737   0.16758   0.52364   0.00000  Uiso   1.00
Si8    Si    0.66746   0.66723   0.52355   0.00000  Uiso   1.00
Si9    Si    0.33360   0.00015   0.69601   0.00000  Uiso   1.00
Si10   Si    0.33358   0.50013   0.69601   0.00000  Uiso   1.00
Si11   Si    0.83358   0.00013   0.69600   0.00000  Uiso   1.00
Si12   Si    0.83356   0.50012   0.69602   0.00000  Uiso   1.00
Si13   Si    0.33300   0.00037   0.52366   0.00000  Uiso   1.00
Si14   Si    0.33308   0.49984   0.52338   0.00000  Uiso   1.00
Si15   Si    0.83274  -0.00005   0.52344   0.00000  Uiso   1.00
Si16   Si    0.83286   0.50017   0.52379   0.00000  Uiso   1.00
Si17   Si    0.00026   0.33345   0.69602   0.00000  Uiso   1.00
Si18   Si    0.00026   0.83346   0.69601   0.00000  Uiso   1.00
Si19   Si    0.50024   0.33348   0.69601   0.00000  Uiso   1.00
Si20   Si    0.50025   0.83347   0.69600   0.00000  Uiso   1.00
Si21   Si    0.00033   0.33289   0.52362   0.00000  Uiso   1.00
Si22   Si    0.00030   0.83288   0.52351   0.00000  Uiso   1.00
Si23   Si    0.50006   0.33300   0.52345   0.00000  Uiso   1.00
Si24   Si    0.50031   0.83278   0.52347   0.00000  Uiso   1.00
N1     N     0.16708   0.16702   0.57390   0.00000  Uiso   1.00
N2     N     0.16732   0.66723   0.57384   0.00000  Uiso   1.00
N3     N     0.66746   0.16750   0.57385   0.00000  Uiso   1.00
N4     N     0.66725   0.66711   0.57383   0.00000  Uiso   1.00
N5     N     0.16689   0.16680   0.64573   0.00000  Uiso   1.00
N6     N     0.16704   0.66686   0.64573   0.00000  Uiso   1.00
N7     N     0.66699   0.16687   0.64573   0.00000  Uiso   1.00
N8     N     0.66692   0.66686   0.64572   0.00000  Uiso   1.00
N9     N     0.16692   0.00013   0.71057   0.00000  Uiso   1.00
N10    N     0.16689   0.50011   0.71056   0.00000  Uiso   1.00
N11    N     0.66692   0.00013   0.71056   0.00000  Uiso   1.00
N12    N     0.66690   0.50015   0.71057   0.00000  Uiso   1.00
N13    N     0.16622   0.00024   0.50940   0.00000  Uiso   1.00
N14    N     0.16596   0.50024   0.50910   0.00000  Uiso   1.00
N15    N     0.66590   0.00058   0.50931   0.00000  Uiso   1.00
N16    N     0.66641   0.50021   0.50933   0.00000  Uiso   1.00
N17    N     0.33334   0.00018   0.57388   0.00000  Uiso   1.00
N18    N     0.33313   0.50015   0.57374   0.00000  Uiso   1.00
N19    N     0.83312   0.00004   0.57376   0.00000  Uiso   1.00
N20    N     0.83329   0.50009   0.57393   0.00000  Uiso   1.00
N21    N     0.33359   0.00016   0.64573   0.00000  Uiso   1.00
N22    N     0.33353   0.50015   0.64570   0.00000  Uiso   1.00
N23    N     0.83351   0.00009   0.64571   0.00000  Uiso   1.00
N24    N     0.83357   0.50016   0.64575   0.00000  Uiso   1.00
N25    N     0.33357   0.33347   0.71056   0.00000  Uiso   1.00
N26    N     0.33358   0.83347   0.71056   0.00000  Uiso   1.00
N27    N     0.83356   0.33346   0.71057   0.00000  Uiso   1.00
N28    N     0.83362   0.83349   0.71056   0.00000  Uiso   1.00
N29    N     0.33412   0.33387   0.50936   0.00000  Uiso   1.00
N30    N     0.33440   0.83442   0.50925   0.00000  Uiso   1.00
N31    N     0.83465   0.33467   0.50908   0.00000  Uiso   1.00
N32    N     0.83445   0.83410   0.50928   0.00000  Uiso   1.00
N33    N     0.00022   0.33314   0.57382   0.00000  Uiso   1.00
N34    N     0.00028   0.83293   0.57380   0.00000  Uiso   1.00
N35    N     0.50032   0.33319   0.57381   0.00000  Uiso   1.00
N36    N     0.50026   0.83312   0.57378   0.00000  Uiso   1.00
N37    N     0.00029   0.33342   0.64572   0.00000  Uiso   1.00
N38    N     0.00024   0.83341   0.64573   0.00000  Uiso   1.00
N39    N     0.50021   0.33349   0.64573   0.00000  Uiso   1.00
N40    N     0.50029   0.83344   0.64570   0.00000  Uiso   1.00
N41    N     0.00024   0.16679   0.71056   0.00000  Uiso   1.00
N42    N     0.00024   0.66680   0.71057   0.00000  Uiso   1.00
N43    N     0.50023   0.16680   0.71056   0.00000  Uiso   1.00
N44    N     0.50024   0.66681   0.71056   0.00000  Uiso   1.00
N45    N     0.50017   0.16604   0.50929   0.00000  Uiso   1.00
N46    N     0.50038   0.66584   0.50922   0.00000  Uiso   1.00
N47    N     0.00026   0.16593   0.50928   0.00000  Uiso   1.00
N48    N     0.00010   0.66548   0.50919   0.00000  Uiso   1.00
Ni1    Ni   -0.01595  -0.01576   0.35379   0.00000  Uiso   1.00
Ni2    Ni    0.00115   0.50312   0.35139   0.00000  Uiso   1.00
Ni3    Ni    0.50300  -0.00004   0.34974   0.00000  Uiso   1.00
Ni4    Ni    0.49635   0.50202   0.34986   0.00000  Uiso   1.00
Ni5    Ni   -0.00640   0.00106   0.44101   0.00000  Uiso   1.00
Ni6    Ni   -0.00122   0.49937   0.44088   0.00000  Uiso   1.00
Ni7    Ni    0.50113  -0.00622   0.44109   0.00000  Uiso   1.00
Ni8    Ni    0.51501   0.51738   0.43660   0.00000  Uiso   1.00
Ni9    Ni    0.33258   0.16719   0.39528   0.00000  Uiso   1.00
Ni10   Ni    0.35453   0.67683   0.39486   0.00000  Uiso   1.00
Ni11   Ni    0.82094   0.14403   0.39507   0.00000  Uiso   1.00
Ni12   Ni    0.83103   0.66923   0.39540   0.00000  Uiso   1.00
Te1    Te    0.16447   0.33233   0.39511   0.00000  Uiso   1.00
Te2    Te    0.16777   0.83438   0.39629   0.00000  Uiso   1.00
Te3    Te    0.66594   0.33303   0.39398   0.00000  Uiso   1.00
O1     O     0.31720   0.32459   0.36234   0.00000  Uiso   1.00
O2     O     0.31816   0.82467   0.36286   0.00000  Uiso   1.00
O3     O     0.82171   0.32396   0.36332   0.00000  Uiso   1.00
O4     O     0.81622   0.80851   0.36547   0.00000  Uiso   1.00
O5     O     0.17474   0.49520   0.36317   0.00000  Uiso   1.00
O6     O     0.17086   0.99198   0.36385   0.00000  Uiso   1.00
O7     O     0.67384   0.49309   0.36130   0.00000  Uiso   1.00
O8     O     0.68136   0.01197   0.35793   0.00000  Uiso   1.00
O9     O     0.00321   0.17485   0.36342   0.00000  Uiso   1.00
O10    O    -0.00335   0.68059   0.36459   0.00000  Uiso   1.00
O11    O     0.50427   0.17850   0.36214   0.00000  Uiso   1.00
O12    O     0.48963   0.67155   0.35798   0.00000  Uiso   1.00
O13    O     0.00192   0.32247   0.42690   0.00000  Uiso   1.00
O14    O     0.00785   0.82627   0.42896   0.00000  Uiso   1.00
O15    O     0.50799   0.32985   0.42630   0.00000  Uiso   1.00
O16    O     0.49065   0.81555   0.43072   0.00000  Uiso   1.00
O17    O     0.17384   0.18074   0.42770   0.00000  Uiso   1.00
O18    O     0.17747   0.67924   0.42677   0.00000  Uiso   1.00
O19    O     0.67332   0.18025   0.42682   0.00000  Uiso   1.00
O20    O     0.69328   0.68449   0.42544   0.00000  Uiso   1.00
O21    O     0.32254   0.49454   0.42665   0.00000  Uiso   1.00
O22    O     0.32264   0.99564   0.42779   0.00000  Uiso   1.00
O23    O     0.82033   0.50198   0.42562   0.00000  Uiso   1.00
O24    O     0.82272   0.00689   0.43094   0.00000  Uiso   1.00
H      H     0.66327   0.84591   0.39352   0.00000  Uiso   1.00
loop_
_geom_bond_atom_site_label_1
_geom_bond_atom_site_label_2
_geom_bond_distance
_geom_bond_site_symmetry_2
_ccdc_geom_bond_type
Mo1    Mo5     2.931   .     S
Mo1    Mo6     2.931   1_545 S
Mo1    Mo8     2.929   1_445 S
Mo1    Mo9     2.930   .     S
Mo1    Mo10    2.929   1_545 S
Mo1    Mo11    2.931   .     S
Mo1    N1      2.107   .     S
Mo1    N5      2.107   .     S
Mo1    N17     2.104   .     S
Mo1    N21     2.107   .     S
Mo1    N34     2.109   1_545 S
Mo1    N38     2.107   1_545 S
Mo2    Mo5     2.929   .     S
Mo2    Mo6     2.931   .     S
Mo2    Mo7     2.930   1_455 S
Mo2    Mo9     2.931   .     S
Mo2    Mo10    2.930   .     S
Mo2    Mo12    2.929   .     S
Mo2    N2      2.108   .     S
Mo2    N6      2.107   .     S
Mo2    N18     2.104   .     S
Mo2    N22     2.106   .     S
Mo2    N33     2.108   .     S
Mo2    N37     2.108   .     S
Mo3    Mo6     2.929   1_545 S
Mo3    Mo7     2.931   .     S
Mo3    Mo8     2.930   1_545 S
Mo3    Mo9     2.929   1_655 S
Mo3    Mo11    2.931   .     S
Mo3    Mo12    2.931   1_545 S
Mo3    N3      2.109   .     S
Mo3    N7      2.108   .     S
Mo3    N19     2.105   .     S
Mo3    N23     2.107   .     S
Mo3    N36     2.109   1_545 S
Mo3    N40     2.107   1_545 S
Mo4    Mo5     2.929   .     S
Mo4    Mo7     2.931   .     S
Mo4    Mo8     2.930   .     S
Mo4    Mo10    2.932   1_655 S
Mo4    Mo11    2.929   .     S
Mo4    Mo12    2.929   .     S
Mo4    N4      2.108   .     S
Mo4    N8      2.107   .     S
Mo4    N20     2.104   .     S
Mo4    N24     2.108   .     S
Mo4    N35     2.108   .     S
Mo4    N39     2.106   .     S
Mo5    Mo9     2.931   .     S
Mo5    Mo11    2.930   .     S
Mo5    Mo12    2.929   .     S
Mo5    N1      2.104   .     S
Mo5    N5      2.108   .     S
Mo5    N18     2.110   .     S
Mo5    N22     2.107   .     S
Mo5    N35     2.109   .     S
Mo5    N39     2.107   .     S
Mo6    Mo1     2.931   1_565 S
Mo6    Mo3     2.929   1_565 S
Mo6    Mo10    2.931   .     S
Mo6    Mo11    2.930   1_565 S
Mo6    Mo12    2.930   .     S
Mo6    N2      2.104   .     S
Mo6    N6      2.107   .     S
Mo6    N17     2.107   1_565 S
Mo6    N21     2.107   1_565 S
Mo6    N36     2.109   .     S
Mo6    N40     2.106   .     S
Mo7    Mo2     2.930   1_655 S
Mo7    Mo9     2.930   1_655 S
Mo7    Mo10    2.930   1_655 S
Mo7    Mo11    2.931   .     S
Mo7    N3      2.103   .     S
Mo7    N7      2.106   .     S
Mo7    N20     2.106   .     S
Mo7    N24     2.107   .     S
Mo7    N33     2.109   1_655 S
Mo7    N37     2.106   1_655 S
Mo8    Mo1     2.929   1_665 S
Mo8    Mo3     2.930   1_565 S
Mo8    Mo9     2.929   1_665 S
Mo8    Mo10    2.930   1_655 S
Mo8    Mo12    2.931   .     S
Mo8    N4      2.104   .     S
Mo8    N8      2.107   .     S
Mo8    N19     2.109   1_565 S
Mo8    N23     2.107   1_565 S
Mo8    N34     2.109   1_655 S
Mo8    N38     2.108   1_655 S
Mo9    Mo3     2.929   1_455 S
Mo9    Mo7     2.930   1_455 S
Mo9    Mo8     2.929   1_445 S
Mo9    N1      2.106   .     S
Mo9    N5      2.107   .     S
Mo9    N19     2.109   1_455 S
Mo9    N23     2.106   1_455 S
Mo9    N33     2.105   .     S
Mo9    N37     2.107   .     S
Mo10   Mo1     2.929   1_565 S
Mo10   Mo4     2.932   1_455 S
Mo10   Mo8     2.930   1_455 S
Mo10   Mo7     2.930   1_455 S
Mo10   N2      2.108   .     S
Mo10   N6      2.107   .     S
Mo10   N20     2.107   1_455 S
Mo10   N24     2.107   1_455 S
Mo10   N34     2.104   .     S
Mo10   N38     2.106   .     S
Mo11   Mo6     2.930   1_545 S
Mo11   N3      2.108   .     S
Mo11   N7      2.107   .     S
Mo11   N17     2.107   .     S
Mo11   N21     2.107   .     S
Mo11   N35     2.104   .     S
Mo11   N39     2.106   .     S
Mo12   Mo3     2.931   1_565 S
Mo12   N4      2.108   .     S
Mo12   N8      2.108   .     S
Mo12   N18     2.109   .     S
Mo12   N22     2.107   .     S
Mo12   N36     2.104   .     S
Mo12   N40     2.107   .     S
Si1    N5      1.757   .     S
Si1    N9      1.767   .     S
Si1    N25     1.766   .     S
Si1    N41     1.766   .     S
Si2    N6      1.757   .     S
Si2    N10     1.767   .     S
Si2    N26     1.766   .     S
Si2    N42     1.767   .     S
Si3    N7      1.757   .     S
Si3    N11     1.766   .     S
Si3    N27     1.767   .     S
Si3    N43     1.766   .     S
Si4    N8      1.757   .     S
Si4    N12     1.766   .     S
Si4    N28     1.767   .     S
Si4    N44     1.767   .     S
Si5    N1      1.755   .     S
Si5    N13     1.762   .     S
Si5    N29     1.762   .     S
Si5    N47     1.765   .     S
Si6    N2      1.754   .     S
Si6    N14     1.763   .     S
Si6    N30     1.768   .     S
Si6    N48     1.764   .     S
Si7    N3      1.754   .     S
Si7    N15     1.760   .     S
Si7    N31     1.772   .     S
Si7    N45     1.762   .     S
Si8    N4      1.757   .     S
Si8    N16     1.762   .     S
Si8    N32     1.766   .     S
Si8    N46     1.762   .     S
Si9    N9      1.767   .     S
Si9    N21     1.757   .     S
Si9    N26     1.766   1_545 S
Si9    N43     1.766   .     S
Si10   N10     1.767   .     S
Si10   N22     1.758   .     S
Si10   N25     1.766   .     S
Si10   N44     1.766   .     S
Si11   N11     1.766   .     S
Si11   N23     1.757   .     S
Si11   N28     1.766   1_545 S
Si11   N41     1.766   1_655 S
Si12   N12     1.766   .     S
Si12   N24     1.756   .     S
Si12   N27     1.766   .     S
Si12   N42     1.767   1_655 S
Si13   N13     1.764   .     S
Si13   N17     1.755   .     S
Si13   N30     1.765   1_545 S
Si13   N45     1.762   .     S
Si14   N14     1.770   .     S
Si14   N18     1.760   .     S
Si14   N29     1.759   .     S
Si14   N46     1.762   .     S
Si15   N15     1.767   .     S
Si15   N19     1.758   .     S
Si15   N32     1.763   1_545 S
Si15   N47     1.763   1_655 S
Si16   N16     1.764   .     S
Si16   N20     1.752   .     S
Si16   N31     1.766   .     S
Si16   N48     1.763   1_655 S
Si17   N10     1.766   .     S
Si17   N27     1.767   1_455 S
Si17   N37     1.757   .     S
Si17   N41     1.766   .     S
Si18   N9      1.766   1_565 S
Si18   N28     1.766   1_455 S
Si18   N38     1.757   .     S
Si18   N42     1.766   .     S
Si19   N12     1.767   .     S
Si19   N25     1.766   .     S
Si19   N39     1.757   .     S
Si19   N43     1.767   .     S
Si20   N11     1.766   1_565 S
Si20   N26     1.767   .     S
Si20   N40     1.757   .     S
Si20   N44     1.766   .     S
Si21   N14     1.765   .     S
Si21   N31     1.765   1_455 S
Si21   N33     1.754   .     S
Si21   N47     1.767   .     S
Si22   N13     1.762   1_565 S
Si22   N32     1.761   1_455 S
Si22   N34     1.757   .     S
Si22   N48     1.770   .     S
Si23   N16     1.763   .     S
Si23   N29     1.759   .     S
Si23   N35     1.759   .     S
Si23   N45     1.766   .     S
Si24   N15     1.763   1_565 S
Si24   N30     1.764   .     S
Si24   N36     1.758   .     S
Si24   N46     1.766   .     S
N9     Si18    1.766   1_545 S
N11    Si20    1.766   1_545 S
N13    Si22    1.762   1_545 S
N15    Si24    1.763   1_545 S
N17    Mo6     2.107   1_545 S
N19    Mo8     2.109   1_545 S
N19    Mo9     2.109   1_655 S
N20    Mo10    2.107   1_655 S
N21    Mo6     2.107   1_545 S
N23    Mo8     2.107   1_545 S
N23    Mo9     2.106   1_655 S
N24    Mo10    2.107   1_655 S
N26    Si9     1.766   1_565 S
N27    Si17    1.767   1_655 S
N28    Si11    1.766   1_565 S
N28    Si18    1.766   1_655 S
N30    Si13    1.765   1_565 S
N31    Si21    1.765   1_655 S
N32    Si15    1.763   1_565 S
N32    Si22    1.761   1_655 S
N33    Mo7     2.109   1_455 S
N34    Mo1     2.109   1_565 S
N34    Mo8     2.109   1_455 S
N36    Mo3     2.109   1_565 S
N37    Mo7     2.106   1_455 S
N38    Mo1     2.107   1_565 S
N38    Mo8     2.108   1_455 S
N40    Mo3     2.107   1_565 S
N41    Si11    1.766   1_455 S
N42    Si12    1.767   1_455 S
N47    Si15    1.763   1_455 S
N48    Si16    1.763   1_455 S
Ni1    O4      1.792   1_445 S
Ni1    O6      1.891   1_545 S
Ni1    O9      1.876   .     S
Ni2    O3      1.867   1_455 S
Ni2    O5      1.850   .     S
Ni2    O10     1.882   .     S
Ni3    O2      1.886   1_545 S
Ni3    O8      1.776   .     S
Ni3    O11     1.857   .     S
Ni4    O1      1.862   .     S
Ni4    O7      1.891   .     S
Ni4    O12     1.779   .     S
Ni5    O14     1.898   1_545 S
Ni5    O17     1.885   .     S
Ni5    O24     1.800   1_455 S
Ni6    O13     1.877   .     S
Ni6    O18     1.885   .     S
Ni6    O23     1.901   1_455 S
Ni7    O16     1.795   1_545 S
Ni7    O19     1.891   .     S
Ni7    O22     1.880   1_545 S
Ni8    O15     1.903   .     S
Ni8    O20     1.798   .     S
Ni8    O21     1.881   .     S
Ni9    Te1     2.929   .     S
Ni9    Te2     2.926   1_545 S
Ni9    Te3     2.931   .     S
Ni9    O1      2.037   .     S
Ni9    O6      2.036   1_545 S
Ni9    O11     2.047   .     S
Ni9    O15     2.033   .     S
Ni9    O17     2.030   .     S
Ni9    O22     2.039   1_545 S
Ni10   Te1     3.034   .     S
Ni10   Te2     3.031   .     S
Ni10   O2      2.047   .     S
Ni10   O5      2.143   .     S
Ni10   O12     1.902   .     S
Ni10   O16     1.875   .     S
Ni10   O18     2.125   .     S
Ni10   O21     2.040   .     S
Ni11   Te1     3.024   1_655 S
Ni11   Te3     3.029   .     S
Ni11   O3      2.133   .     S
Ni11   O8      1.894   .     S
Ni11   O9      2.041   1_655 S
Ni11   O13     2.136   1_655 S
Ni11   O19     2.040   .     S
Ni11   O24     1.880   .     S
Ni12   Te2     2.960   1_655 S
Ni12   Te3     2.956   .     S
Ni12   O4      1.824   .     S
Ni12   O7      2.076   .     S
Ni12   O10     1.950   1_655 S
Ni12   O14     2.068   1_655 S
Ni12   O20     1.816   .     S
Ni12   O23     1.956   .     S
Te1    Ni11    3.024   1_455 S
Te1    O1      1.960   .     S
Te1    O5      1.954   .     S
Te1    O9      1.961   .     S
Te1    O13     1.949   .     S
Te1    O17     1.954   .     S
Te1    O21     1.964   .     S
Te2    Ni12    2.960   1_455 S
Te2    Ni9     2.926   1_565 S
Te2    O2      1.963   .     S
Te2    O6      1.948   .     S
Te2    O10     1.992   .     S
Te2    O14     1.952   .     S
Te2    O18     1.944   .     S
Te2    O22     1.946   .     S
Te3    O3      1.950   .     S
Te3    O7      1.954   .     S
Te3    O11     1.954   .     S
Te3    O15     1.948   .     S
Te3    O19     1.960   .     S
Te3    O23     1.983   .     S
O2     Ni3     1.886   1_565 S
O3     Ni2     1.867   1_655 S
O4     Ni1     1.792   1_665 S
O6     Ni1     1.891   1_565 S
O6     Ni9     2.036   1_565 S
O9     Ni11    2.041   1_455 S
O10    Ni12    1.950   1_455 S
O13    Ni11    2.136   1_455 S
O14    Ni12    2.068   1_455 S
O14    Ni5     1.898   1_565 S
O16    Ni7     1.795   1_565 S
O22    Ni7     1.880   1_565 S
O22    Ni9     2.039   1_565 S
O23    Ni6     1.901   1_655 S
O24    Ni5     1.800   1_655 S
