data_HN
_audit_creation_date              2025-01-27
_audit_creation_method            'Materials Studio'
_symmetry_space_group_name_H-M    'P1'
_symmetry_Int_Tables_number       1
_symmetry_cell_setting            triclinic
loop_
_symmetry_equiv_pos_as_xyz
  x,y,z
_cell_length_a                    10.1502
_cell_length_b                    10.1502
_cell_length_c                    34.9384
_cell_angle_alpha                 90.0001
_cell_angle_beta                  90.0000
_cell_angle_gamma                 119.9999
loop_
_atom_site_label
_atom_site_type_symbol
_atom_site_fract_x
_atom_site_fract_y
_atom_site_fract_z
_atom_site_U_iso_or_equiv
_atom_site_adp_type
_atom_site_occupancy
Mo1    Mo    0.16663   0.00000   0.60991   0.00000  Uiso   1.00
Mo2    Mo    0.16663   0.50000   0.60991   0.00000  Uiso   1.00
Mo3    Mo    0.66663   0.00000   0.60991   0.00000  Uiso   1.00
Mo4    Mo    0.66663   0.50000   0.60991   0.00000  Uiso   1.00
Mo5    Mo    0.33338   0.33337   0.60991   0.00000  Uiso   1.00
Mo6    Mo    0.33338   0.83337   0.60991   0.00000  Uiso   1.00
Mo7    Mo    0.83338   0.33337   0.60991   0.00000  Uiso   1.00
Mo8    Mo    0.83338   0.83337   0.60991   0.00000  Uiso   1.00
Mo9    Mo   -0.00000   0.16662   0.60991   0.00000  Uiso   1.00
Mo10   Mo   -0.00000   0.66662   0.60991   0.00000  Uiso   1.00
Mo11   Mo    0.50000   0.16662   0.60991   0.00000  Uiso   1.00
Mo12   Mo    0.50000   0.66662   0.60991   0.00000  Uiso   1.00
N1     N     0.16705   0.16709   0.57397   0.00000  Uiso   1.00
N2     N     0.16705   0.66709   0.57397   0.00000  Uiso   1.00
N3     N     0.66705   0.16709   0.57397   0.00000  Uiso   1.00
N4     N     0.66705   0.66709   0.57397   0.00000  Uiso   1.00
N5     N     0.16672   0.16672   0.64585   0.00000  Uiso   1.00
N6     N     0.16672   0.66672   0.64585   0.00000  Uiso   1.00
N7     N     0.66672   0.16672   0.64585   0.00000  Uiso   1.00
N8     N     0.66672   0.66672   0.64585   0.00000  Uiso   1.00
N9     N     0.16665   0.00000   0.71071   0.00000  Uiso   1.00
N10    N     0.16665   0.50000   0.71071   0.00000  Uiso   1.00
N11    N     0.66665   0.00000   0.71071   0.00000  Uiso   1.00
N12    N     0.66665   0.50000   0.71071   0.00000  Uiso   1.00
N13    N     0.16579   0.00011   0.50940   0.00000  Uiso   1.00
N14    N     0.16579   0.50011   0.50940   0.00000  Uiso   1.00
N15    N     0.66579   0.00011   0.50940   0.00000  Uiso   1.00
N16    N     0.66579   0.50011   0.50940   0.00000  Uiso   1.00
N17    N     0.33291   0.99996   0.57397   0.00000  Uiso   1.00
N18    N     0.33291   0.49996   0.57397   0.00000  Uiso   1.00
N19    N     0.83291   0.99996   0.57397   0.00000  Uiso   1.00
N20    N     0.83291   0.49996   0.57397   0.00000  Uiso   1.00
N21    N     0.33328  -0.00000   0.64585   0.00000  Uiso   1.00
N22    N     0.33328   0.50000   0.64585   0.00000  Uiso   1.00
N23    N     0.83328  -0.00001   0.64585   0.00000  Uiso   1.00
N24    N     0.83328   0.50000   0.64585   0.00000  Uiso   1.00
N25    N     0.33336   0.33336   0.71071   0.00000  Uiso   1.00
N26    N     0.33336   0.83336   0.71071   0.00000  Uiso   1.00
N27    N     0.83336   0.33336   0.71071   0.00000  Uiso   1.00
N28    N     0.83336   0.83336   0.71071   0.00000  Uiso   1.00
N29    N     0.33432   0.33421   0.50940   0.00000  Uiso   1.00
N30    N     0.33432   0.83421   0.50940   0.00000  Uiso   1.00
N31    N     0.83432   0.33421   0.50940   0.00000  Uiso   1.00
N32    N     0.83432   0.83421   0.50940   0.00000  Uiso   1.00
N33    N     0.00004   0.33295   0.57397   0.00000  Uiso   1.00
N34    N     0.00004   0.83295   0.57397   0.00000  Uiso   1.00
N35    N     0.50004   0.33295   0.57397   0.00000  Uiso   1.00
N36    N     0.50004   0.83295   0.57397   0.00000  Uiso   1.00
N37    N     0.00001   0.33329   0.64585   0.00000  Uiso   1.00
N38    N     0.00001   0.83329   0.64585   0.00000  Uiso   1.00
N39    N     0.50001   0.33329   0.64585   0.00000  Uiso   1.00
N40    N     0.50001   0.83329   0.64585   0.00000  Uiso   1.00
N41    N    -0.00000   0.16664   0.71071   0.00000  Uiso   1.00
N42    N    -0.00000   0.66664   0.71071   0.00000  Uiso   1.00
N43    N     0.50000   0.16664   0.71071   0.00000  Uiso   1.00
N44    N     0.50000   0.66664   0.71071   0.00000  Uiso   1.00
N45    N     0.49989   0.16568   0.50940   0.00000  Uiso   1.00
N46    N     0.49989   0.66568   0.50940   0.00000  Uiso   1.00
N47    N     0.99989   0.16568   0.50940   0.00000  Uiso   1.00
N48    N     0.99989   0.66568   0.50940   0.00000  Uiso   1.00
Si1    Si    0.16666   0.16666   0.69612   0.00000  Uiso   1.00
Si2    Si    0.16666   0.66666   0.69612   0.00000  Uiso   1.00
Si3    Si    0.66666   0.16666   0.69612   0.00000  Uiso   1.00
Si4    Si    0.66666   0.66666   0.69612   0.00000  Uiso   1.00
Si5    Si    0.16735   0.16738   0.52372   0.00000  Uiso   1.00
Si6    Si    0.16735   0.66738   0.52372   0.00000  Uiso   1.00
Si7    Si    0.66735   0.16738   0.52372   0.00000  Uiso   1.00
Si8    Si    0.66735   0.66738   0.52372   0.00000  Uiso   1.00
Si9    Si    0.33335  -0.00000   0.69612   0.00000  Uiso   1.00
Si10   Si    0.33335   0.50000   0.69612   0.00000  Uiso   1.00
Si11   Si    0.83335  -0.00000   0.69612   0.00000  Uiso   1.00
Si12   Si    0.83335   0.50000   0.69612   0.00000  Uiso   1.00
Si13   Si    0.33262  -0.00003   0.52372   0.00000  Uiso   1.00
Si14   Si    0.33262   0.49997   0.52372   0.00000  Uiso   1.00
Si15   Si    0.83262  -0.00003   0.52372   0.00000  Uiso   1.00
Si16   Si    0.83262   0.49997   0.52372   0.00000  Uiso   1.00
Si17   Si   -0.00000   0.33335   0.69612   0.00000  Uiso   1.00
Si18   Si   -0.00000   0.83335   0.69612   0.00000  Uiso   1.00
Si19   Si    0.50000   0.33335   0.69612   0.00000  Uiso   1.00
Si20   Si    0.50000   0.83335   0.69612   0.00000  Uiso   1.00
Si21   Si    0.00003   0.33265   0.52372   0.00000  Uiso   1.00
Si22   Si    0.00003   0.83265   0.52372   0.00000  Uiso   1.00
Si23   Si    0.50003   0.33265   0.52372   0.00000  Uiso   1.00
Si24   Si    0.50003   0.83265   0.52372   0.00000  Uiso   1.00
Ni1    Ni    0.00000   0.00000   0.34945   0.00000  Uiso   1.00
Ni2    Ni    0.00000   0.50000   0.34945   0.00000  Uiso   1.00
Ni3    Ni    0.50000  -0.00000   0.34945   0.00000  Uiso   1.00
Ni4    Ni    0.50000   0.50000   0.34945   0.00000  Uiso   1.00
Ni5    Ni    0.00000   0.00000   0.44109   0.00000  Uiso   1.00
Ni6    Ni    0.00000   0.50000   0.44109   0.00000  Uiso   1.00
Ni7    Ni    0.50000   0.00000   0.44109   0.00000  Uiso   1.00
Ni8    Ni    0.50000   0.50000   0.44109   0.00000  Uiso   1.00
Ni9    Ni    0.33333   0.16667   0.39481   0.00000  Uiso   1.00
Ni10   Ni    0.33333   0.66667   0.39481   0.00000  Uiso   1.00
Ni11   Ni    0.83333   0.16667   0.39481   0.00000  Uiso   1.00
Ni12   Ni    0.83333   0.66667   0.39481   0.00000  Uiso   1.00
O1     O     0.31847   0.32466   0.36220   0.00000  Uiso   1.00
O2     O     0.31847   0.82466   0.36220   0.00000  Uiso   1.00
O3     O     0.81847   0.32466   0.36220   0.00000  Uiso   1.00
O4     O     0.81847   0.82466   0.36220   0.00000  Uiso   1.00
O5     O     0.17534   0.49380   0.36220   0.00000  Uiso   1.00
O6     O     0.17534   0.99380   0.36220   0.00000  Uiso   1.00
O7     O     0.67534   0.49380   0.36220   0.00000  Uiso   1.00
O8     O     0.67534   0.99380   0.36220   0.00000  Uiso   1.00
O9     O     0.00620   0.18154   0.36220   0.00000  Uiso   1.00
O10    O     0.00620   0.68154   0.36220   0.00000  Uiso   1.00
O11    O     0.50620   0.18154   0.36220   0.00000  Uiso   1.00
O12    O     0.50620   0.68154   0.36220   0.00000  Uiso   1.00
O13    O     0.00625   0.32481   0.42718   0.00000  Uiso   1.00
O14    O     0.00625   0.82481   0.42718   0.00000  Uiso   1.00
O15    O     0.50625   0.32481   0.42718   0.00000  Uiso   1.00
O16    O     0.50625   0.82481   0.42718   0.00000  Uiso   1.00
O17    O     0.17519   0.18145   0.42718   0.00000  Uiso   1.00
O18    O     0.17519   0.68145   0.42718   0.00000  Uiso   1.00
O19    O     0.67519   0.18145   0.42718   0.00000  Uiso   1.00
O20    O     0.67519   0.68145   0.42718   0.00000  Uiso   1.00
O21    O     0.31856   0.49375   0.42718   0.00000  Uiso   1.00
O22    O     0.31856   0.99375   0.42718   0.00000  Uiso   1.00
O23    O     0.81856   0.49375   0.42718   0.00000  Uiso   1.00
O24    O     0.81856   0.99375   0.42718   0.00000  Uiso   1.00
Te1    Te    0.16667   0.33333   0.39465   0.00000  Uiso   1.00
Te2    Te    0.16667   0.83333   0.39465   0.00000  Uiso   1.00
Te3    Te    0.66667   0.33333   0.39465   0.00000  Uiso   1.00
loop_
_geom_bond_atom_site_label_1
_geom_bond_atom_site_label_2
_geom_bond_distance
_geom_bond_site_symmetry_2
_ccdc_geom_bond_type
Mo1    Mo5     2.930   .     S
Mo1    Mo6     2.931   1_545 S
Mo1    Mo8     2.929   1_445 S
Mo1    Mo9     2.929   .     S
Mo1    Mo10    2.931   1_545 S
Mo1    Mo11    2.930   .     S
Mo1    N1      2.109   .     S
Mo1    N5      2.107   .     S
Mo1    N17     2.104   1_545 S
Mo1    N21     2.107   .     S
Mo1    N34     2.108   1_545 S
Mo1    N38     2.107   1_545 S
Mo2    Mo5     2.931   .     S
Mo2    Mo6     2.930   .     S
Mo2    Mo7     2.929   1_455 S
Mo2    Mo9     2.931   .     S
Mo2    Mo10    2.929   .     S
Mo2    Mo12    2.930   .     S
Mo2    N2      2.109   .     S
Mo2    N6      2.107   .     S
Mo2    N18     2.104   .     S
Mo2    N22     2.107   .     S
Mo2    N33     2.108   .     S
Mo2    N37     2.107   .     S
Mo3    Mo6     2.929   1_545 S
Mo3    Mo7     2.930   .     S
Mo3    Mo8     2.931   1_545 S
Mo3    Mo9     2.930   1_655 S
Mo3    Mo11    2.929   .     S
Mo3    Mo12    2.931   1_545 S
Mo3    N3      2.109   .     S
Mo3    N7      2.107   .     S
Mo3    N19     2.104   1_545 S
Mo3    N23     2.107   .     S
Mo3    N36     2.108   1_545 S
Mo3    N40     2.107   1_545 S
Mo4    Mo5     2.929   .     S
Mo4    Mo7     2.931   .     S
Mo4    Mo8     2.930   .     S
Mo4    Mo10    2.930   1_655 S
Mo4    Mo11    2.931   .     S
Mo4    Mo12    2.929   .     S
Mo4    N4      2.109   .     S
Mo4    N8      2.107   .     S
Mo4    N20     2.104   .     S
Mo4    N24     2.107   .     S
Mo4    N35     2.108   .     S
Mo4    N39     2.107   .     S
Mo5    Mo9     2.931   .     S
Mo5    Mo11    2.930   .     S
Mo5    Mo12    2.929   .     S
Mo5    N1      2.104   .     S
Mo5    N5      2.107   .     S
Mo5    N18     2.108   .     S
Mo5    N22     2.107   .     S
Mo5    N35     2.109   .     S
Mo5    N39     2.107   .     S
Mo6    Mo1     2.931   1_565 S
Mo6    Mo3     2.929   1_565 S
Mo6    Mo10    2.931   .     S
Mo6    Mo11    2.929   1_565 S
Mo6    Mo12    2.930   .     S
Mo6    N2      2.104   .     S
Mo6    N6      2.107   .     S
Mo6    N17     2.108   .     S
Mo6    N21     2.107   1_565 S
Mo6    N36     2.109   .     S
Mo6    N40     2.107   .     S
Mo7    Mo2     2.929   1_655 S
Mo7    Mo9     2.930   1_655 S
Mo7    Mo10    2.929   1_655 S
Mo7    Mo11    2.931   .     S
Mo7    N3      2.104   .     S
Mo7    N7      2.107   .     S
Mo7    N20     2.108   .     S
Mo7    N24     2.107   .     S
Mo7    N33     2.109   1_655 S
Mo7    N37     2.107   1_655 S
Mo8    Mo1     2.929   1_665 S
Mo8    Mo3     2.931   1_565 S
Mo8    Mo9     2.929   1_665 S
Mo8    Mo10    2.930   1_655 S
Mo8    Mo12    2.931   .     S
Mo8    N4      2.104   .     S
Mo8    N8      2.107   .     S
Mo8    N19     2.108   .     S
Mo8    N23     2.107   1_565 S
Mo8    N34     2.109   1_655 S
Mo8    N38     2.107   1_655 S
Mo9    Mo8     2.929   1_445 S
Mo9    Mo3     2.930   1_455 S
Mo9    Mo7     2.930   1_455 S
Mo9    N1      2.108   .     S
Mo9    N5      2.107   .     S
Mo9    N19     2.109   1_445 S
Mo9    N23     2.107   1_455 S
Mo9    N33     2.104   .     S
Mo9    N37     2.107   .     S
Mo10   Mo4     2.930   1_455 S
Mo10   Mo8     2.930   1_455 S
Mo10   Mo1     2.931   1_565 S
Mo10   Mo7     2.929   1_455 S
Mo10   N2      2.108   .     S
Mo10   N6      2.107   .     S
Mo10   N20     2.109   1_455 S
Mo10   N24     2.107   1_455 S
Mo10   N34     2.104   .     S
Mo10   N38     2.107   .     S
Mo11   Mo6     2.929   1_545 S
Mo11   N3      2.108   .     S
Mo11   N7      2.107   .     S
Mo11   N17     2.109   1_545 S
Mo11   N21     2.107   .     S
Mo11   N35     2.104   .     S
Mo11   N39     2.107   .     S
Mo12   Mo3     2.931   1_565 S
Mo12   N4      2.108   .     S
Mo12   N8      2.107   .     S
Mo12   N18     2.109   .     S
Mo12   N22     2.107   .     S
Mo12   N36     2.104   .     S
Mo12   N40     2.107   .     S
N1     Si5     1.755   .     S
N2     Si6     1.755   .     S
N3     Si7     1.755   .     S
N4     Si8     1.755   .     S
N5     Si1     1.757   .     S
N6     Si2     1.757   .     S
N7     Si3     1.757   .     S
N8     Si4     1.757   .     S
N9     Si1     1.767   .     S
N9     Si9     1.767   .     S
N9     Si18    1.767   1_545 S
N10    Si2     1.767   .     S
N10    Si10    1.767   .     S
N10    Si17    1.767   .     S
N11    Si3     1.767   .     S
N11    Si11    1.767   .     S
N11    Si20    1.767   1_545 S
N12    Si4     1.767   .     S
N12    Si12    1.767   .     S
N12    Si19    1.767   .     S
N13    Si5     1.763   .     S
N13    Si13    1.766   .     S
N13    Si22    1.764   1_545 S
N14    Si6     1.763   .     S
N14    Si14    1.766   .     S
N14    Si21    1.764   .     S
N15    Si7     1.763   .     S
N15    Si15    1.766   .     S
N15    Si24    1.764   1_545 S
N16    Si8     1.763   .     S
N16    Si16    1.766   .     S
N16    Si23    1.764   .     S
N17    Mo1     2.104   1_565 S
N17    Mo11    2.109   1_565 S
N17    Si13    1.755   1_565 S
N18    Si14    1.755   .     S
N19    Mo9     2.109   1_665 S
N19    Mo3     2.104   1_565 S
N19    Si15    1.755   1_565 S
N20    Mo10    2.109   1_655 S
N20    Si16    1.755   .     S
N21    Mo6     2.107   1_545 S
N21    Si9     1.757   .     S
N22    Si10    1.757   .     S
N23    Mo9     2.107   1_655 S
N23    Mo8     2.107   1_545 S
N23    Si11    1.757   .     S
N24    Mo10    2.107   1_655 S
N24    Si12    1.757   .     S
N25    Si1     1.767   .     S
N25    Si10    1.767   .     S
N25    Si19    1.767   .     S
N26    Si2     1.767   .     S
N26    Si9     1.767   1_565 S
N26    Si20    1.767   .     S
N27    Si3     1.767   .     S
N27    Si12    1.767   .     S
N27    Si17    1.767   1_655 S
N28    Si4     1.767   .     S
N28    Si11    1.767   1_565 S
N28    Si18    1.767   1_655 S
N29    Si5     1.767   .     S
N29    Si14    1.764   .     S
N29    Si23    1.763   .     S
N30    Si6     1.767   .     S
N30    Si13    1.764   1_565 S
N30    Si24    1.763   .     S
N31    Si7     1.767   .     S
N31    Si16    1.764   .     S
N31    Si21    1.763   1_655 S
N32    Si8     1.767   .     S
N32    Si15    1.764   1_565 S
N32    Si22    1.763   1_655 S
N33    Mo7     2.109   1_455 S
N33    Si21    1.755   .     S
N34    Mo1     2.108   1_565 S
N34    Mo8     2.109   1_455 S
N34    Si22    1.755   .     S
N35    Si23    1.755   .     S
N36    Mo3     2.108   1_565 S
N36    Si24    1.755   .     S
N37    Mo7     2.107   1_455 S
N37    Si17    1.757   .     S
N38    Mo1     2.107   1_565 S
N38    Mo8     2.107   1_455 S
N38    Si18    1.757   .     S
N39    Si19    1.757   .     S
N40    Mo3     2.107   1_565 S
N40    Si20    1.757   .     S
N41    Si1     1.767   .     S
N41    Si11    1.767   1_455 S
N41    Si17    1.767   .     S
N42    Si2     1.767   .     S
N42    Si12    1.767   1_455 S
N42    Si18    1.767   .     S
N43    Si3     1.767   .     S
N43    Si9     1.767   .     S
N43    Si19    1.767   .     S
N44    Si4     1.767   .     S
N44    Si10    1.767   .     S
N44    Si20    1.767   .     S
N45    Si7     1.764   .     S
N45    Si13    1.763   .     S
N45    Si23    1.766   .     S
N46    Si8     1.764   .     S
N46    Si14    1.763   .     S
N46    Si24    1.766   .     S
N47    Si5     1.764   1_655 S
N47    Si15    1.763   .     S
N47    Si21    1.766   1_655 S
N48    Si6     1.764   1_655 S
N48    Si16    1.763   .     S
N48    Si22    1.766   1_655 S
Si5    N47     1.764   1_455 S
Si6    N48     1.764   1_455 S
Si9    N26     1.767   1_545 S
Si11   N28     1.767   1_545 S
Si11   N41     1.767   1_655 S
Si12   N42     1.767   1_655 S
Si13   N30     1.764   1_545 S
Si13   N17     1.755   1_545 S
Si15   N32     1.764   1_545 S
Si15   N19     1.755   1_545 S
Si17   N27     1.767   1_455 S
Si18   N28     1.767   1_455 S
Si18   N9      1.767   1_565 S
Si20   N11     1.767   1_565 S
Si21   N31     1.763   1_455 S
Si21   N47     1.766   1_455 S
Si22   N13     1.764   1_565 S
Si22   N32     1.763   1_455 S
Si22   N48     1.766   1_455 S
Si24   N15     1.764   1_565 S
Ni1    O4      1.866   1_445 S
Ni1    O6      1.866   1_545 S
Ni1    O9      1.866   .     S
Ni2    O3      1.866   1_455 S
Ni2    O5      1.866   .     S
Ni2    O10     1.866   .     S
Ni3    O2      1.866   1_545 S
Ni3    O8      1.866   1_545 S
Ni3    O11     1.866   .     S
Ni4    O1      1.866   .     S
Ni4    O7      1.866   .     S
Ni4    O12     1.866   .     S
Ni5    O14     1.875   1_545 S
Ni5    O17     1.875   .     S
Ni5    O24     1.875   1_445 S
Ni6    O13     1.875   .     S
Ni6    O18     1.875   .     S
Ni6    O23     1.875   1_455 S
Ni7    O16     1.875   1_545 S
Ni7    O19     1.875   .     S
Ni7    O22     1.875   1_545 S
Ni8    O15     1.875   .     S
Ni8    O20     1.875   .     S
Ni8    O21     1.875   .     S
Ni9    O1      2.033   .     S
Ni9    O6      2.033   1_545 S
Ni9    O11     2.033   .     S
Ni9    O15     2.029   .     S
Ni9    O17     2.029   .     S
Ni9    O22     2.029   1_545 S
Ni9    Te1     2.930   .     S
Ni9    Te2     2.930   1_545 S
Ni9    Te3     2.930   .     S
Ni10   O2      2.033   .     S
Ni10   O5      2.033   .     S
Ni10   O12     2.033   .     S
Ni10   O16     2.029   .     S
Ni10   O18     2.029   .     S
Ni10   O21     2.029   .     S
Ni10   Te1     2.930   .     S
Ni10   Te2     2.930   .     S
Ni11   O3      2.033   .     S
Ni11   O8      2.033   1_545 S
Ni11   O9      2.033   1_655 S
Ni11   O13     2.029   1_655 S
Ni11   O19     2.029   .     S
Ni11   O24     2.029   1_545 S
Ni11   Te1     2.930   1_655 S
Ni11   Te3     2.930   .     S
Ni12   O4      2.033   .     S
Ni12   O7      2.033   .     S
Ni12   O10     2.033   1_655 S
Ni12   O14     2.029   1_655 S
Ni12   O20     2.029   .     S
Ni12   O23     2.029   .     S
Ni12   Te2     2.930   1_655 S
Ni12   Te3     2.930   .     S
O1     Te1     1.950   .     S
O2     Ni3     1.866   1_565 S
O2     Te2     1.950   .     S
O3     Ni2     1.866   1_655 S
O3     Te3     1.950   .     S
O4     Ni1     1.866   1_665 S
O5     Te1     1.950   .     S
O6     Ni9     2.033   1_565 S
O6     Ni1     1.866   1_565 S
O6     Te2     1.950   .     S
O7     Te3     1.950   .     S
O8     Ni11    2.033   1_565 S
O8     Ni3     1.866   1_565 S
O9     Ni11    2.033   1_455 S
O9     Te1     1.950   .     S
O10    Ni12    2.033   1_455 S
O10    Te2     1.950   .     S
O11    Te3     1.950   .     S
O13    Ni11    2.029   1_455 S
O13    Te1     1.952   .     S
O14    Ni12    2.029   1_455 S
O14    Ni5     1.875   1_565 S
O14    Te2     1.952   .     S
O15    Te3     1.952   .     S
O16    Ni7     1.875   1_565 S
O17    Te1     1.952   .     S
O18    Te2     1.952   .     S
O19    Te3     1.952   .     S
O21    Te1     1.952   .     S
O22    Ni7     1.875   1_565 S
O22    Ni9     2.029   1_565 S
O22    Te2     1.952   .     S
O23    Ni6     1.875   1_655 S
O23    Te3     1.952   .     S
O24    Ni5     1.875   1_665 S
O24    Ni11    2.029   1_565 S
Te1    Ni11    2.930   1_455 S
Te2    Ni12    2.930   1_455 S
Te2    Ni9     2.930   1_565 S
