data_Si2-vacancy
_audit_creation_date              2025-02-24
_audit_creation_method            'Materials Studio'
_symmetry_space_group_name_H-M    'P1'
_symmetry_Int_Tables_number       1
_symmetry_cell_setting            triclinic
loop_
_symmetry_equiv_pos_as_xyz
  x,y,z
_cell_length_a                    10.1502
_cell_length_b                    10.1502
_cell_length_c                    34.9384
_cell_angle_alpha                 90.0001
_cell_angle_beta                  90.0000
_cell_angle_gamma                 119.9999
loop_
_atom_site_label
_atom_site_type_symbol
_atom_site_fract_x
_atom_site_fract_y
_atom_site_fract_z
_atom_site_U_iso_or_equiv
_atom_site_adp_type
_atom_site_occupancy
Mo1    Mo    0.16536   0.00195   0.60795   0.00000  Uiso   1.00
Mo2    Mo    0.16731   0.50391   0.60836   0.00000  Uiso   1.00
Mo3    Mo    0.66731   0.00455   0.60827   0.00000  Uiso   1.00
Mo4    Mo    0.66467   0.50188   0.60790   0.00000  Uiso   1.00
Mo5    Mo    0.33494   0.33699   0.60795   0.00000  Uiso   1.00
Mo6    Mo    0.33250   0.83719   0.60820   0.00000  Uiso   1.00
Mo7    Mo    0.83451   0.33660   0.60797   0.00000  Uiso   1.00
Mo8    Mo    0.83244   0.83630   0.60837   0.00000  Uiso   1.00
Mo9    Mo    0.00069   0.16894   0.60827   0.00000  Uiso   1.00
Mo10   Mo   -0.00091   0.66811   0.60822   0.00000  Uiso   1.00
Mo11   Mo    0.49988   0.17195   0.60757   0.00000  Uiso   1.00
Mo12   Mo    0.49990   0.67156   0.60821   0.00000  Uiso   1.00
Si1    Si    0.16671   0.16953   0.69428   0.00000  Uiso   1.00
Si2    Si    0.16639   0.66957   0.69442   0.00000  Uiso   1.00
Si3    Si    0.66654   0.16972   0.69419   0.00000  Uiso   1.00
Si4    Si    0.66643   0.66962   0.69437   0.00000  Uiso   1.00
Si5    Si    0.17817   0.17939   0.52077   0.00000  Uiso   1.00
Si6    Si    0.16555   0.66881   0.52262   0.00000  Uiso   1.00
Si7    Si    0.66286   0.16942   0.52104   0.00000  Uiso   1.00
Si8    Si    0.66833   0.66653   0.52121   0.00000  Uiso   1.00
Si9    Si    0.33311   0.00298   0.69415   0.00000  Uiso   1.00
Si10   Si    0.33327   0.50306   0.69441   0.00000  Uiso   1.00
Si11   Si    0.83332   0.00304   0.69443   0.00000  Uiso   1.00
Si12   Si    0.83299   0.50264   0.69427   0.00000  Uiso   1.00
Si13   Si    0.33779   0.00686   0.52076   0.00000  Uiso   1.00
Si14   Si    0.33157   0.49821   0.52144   0.00000  Uiso   1.00
Si15   Si    0.83461   0.00349   0.52280   0.00000  Uiso   1.00
Si16   Si    0.82150   0.50127   0.52072   0.00000  Uiso   1.00
Si17   Si    0.00008   0.33621   0.69433   0.00000  Uiso   1.00
Si18   Si   -0.00037   0.83594   0.69431   0.00000  Uiso   1.00
Si19   Si    0.49979   0.33620   0.69513   0.00000  Uiso   1.00
Si20   Si    0.49984   0.83654   0.69440   0.00000  Uiso   1.00
Si21   Si   -0.00047   0.33412   0.52215   0.00000  Uiso   1.00
Si22   Si    0.00066   0.83432   0.52217   0.00000  Uiso   1.00
Si23   Si    0.49991   0.83437   0.52232   0.00000  Uiso   1.00
N1     N     0.16738   0.16965   0.57232   0.00000  Uiso   1.00
N2     N     0.16643   0.66972   0.57306   0.00000  Uiso   1.00
N3     N     0.66883   0.17188   0.57217   0.00000  Uiso   1.00
N4     N     0.66725   0.67224   0.57257   0.00000  Uiso   1.00
N5     N     0.16666   0.16894   0.64394   0.00000  Uiso   1.00
N6     N     0.16637   0.66990   0.64410   0.00000  Uiso   1.00
N7     N     0.66720   0.17077   0.64382   0.00000  Uiso   1.00
N8     N     0.66613   0.67036   0.64406   0.00000  Uiso   1.00
N9     N     0.16641   0.00265   0.70882   0.00000  Uiso   1.00
N10    N     0.16651   0.50302   0.70896   0.00000  Uiso   1.00
N11    N     0.66670   0.00318   0.70888   0.00000  Uiso   1.00
N12    N     0.66697   0.50339   0.70925   0.00000  Uiso   1.00
N13    N     0.16500   0.00257   0.50758   0.00000  Uiso   1.00
N14    N     0.16172   0.50338   0.50785   0.00000  Uiso   1.00
N15    N     0.66899   0.00052   0.50882   0.00000  Uiso   1.00
N16    N     0.67607   0.51749   0.50393   0.00000  Uiso   1.00
N17    N     0.33137   0.00310   0.57206   0.00000  Uiso   1.00
N18    N     0.33244   0.50495   0.57268   0.00000  Uiso   1.00
N19    N     0.83339   0.00314   0.57317   0.00000  Uiso   1.00
N20    N     0.83213   0.50204   0.57226   0.00000  Uiso   1.00
N21    N     0.33261   0.00343   0.64379   0.00000  Uiso   1.00
N22    N     0.33362   0.50419   0.64409   0.00000  Uiso   1.00
N23    N     0.83337   0.00328   0.64413   0.00000  Uiso   1.00
N24    N     0.83307   0.50222   0.64392   0.00000  Uiso   1.00
N25    N     0.33268   0.33626   0.70926   0.00000  Uiso   1.00
N26    N     0.33299   0.83633   0.70887   0.00000  Uiso   1.00
N27    N     0.83327   0.33609   0.70883   0.00000  Uiso   1.00
N28    N     0.83315   0.83631   0.70895   0.00000  Uiso   1.00
N29    N     0.32459   0.34135   0.50451   0.00000  Uiso   1.00
N30    N     0.33125   0.83155   0.50860   0.00000  Uiso   1.00
N31    N     0.83545   0.33806   0.50735   0.00000  Uiso   1.00
N32    N     0.83854   0.84174   0.50804   0.00000  Uiso   1.00
N33    N     0.00120   0.33546   0.57261   0.00000  Uiso   1.00
N34    N    -0.00130   0.83400   0.57260   0.00000  Uiso   1.00
N35    N     0.49973   0.33754   0.57681   0.00000  Uiso   1.00
N36    N     0.49992   0.83757   0.57282   0.00000  Uiso   1.00
N37    N     0.00089   0.33620   0.64407   0.00000  Uiso   1.00
N38    N    -0.00109   0.83511   0.64405   0.00000  Uiso   1.00
N39    N     0.49987   0.33646   0.64514   0.00000  Uiso   1.00
N40    N     0.49986   0.83805   0.64414   0.00000  Uiso   1.00
N41    N     0.00008   0.16954   0.70891   0.00000  Uiso   1.00
N42    N    -0.00039   0.66927   0.70890   0.00000  Uiso   1.00
N43    N     0.49979   0.16892   0.70915   0.00000  Uiso   1.00
N44    N     0.49988   0.66986   0.70896   0.00000  Uiso   1.00
N45    N     0.50071   0.14258   0.50178   0.00000  Uiso   1.00
N46    N     0.49975   0.66842   0.50854   0.00000  Uiso   1.00
N47    N     0.99932   0.16685   0.50831   0.00000  Uiso   1.00
N48    N     0.00032   0.66693   0.50810   0.00000  Uiso   1.00
Ni1    Ni   -0.00282  -0.00486   0.35512   0.00000  Uiso   1.00
Ni2    Ni    0.01028   0.50106   0.35285   0.00000  Uiso   1.00
Ni3    Ni    0.50233  -0.01354   0.35405   0.00000  Uiso   1.00
Ni4    Ni    0.49404   0.49827   0.35504   0.00000  Uiso   1.00
Ni5    Ni   -0.00053  -0.00752   0.45140   0.00000  Uiso   1.00
Ni6    Ni   -0.00766   0.49403   0.45064   0.00000  Uiso   1.00
Ni7    Ni    0.50608   0.00549   0.45082   0.00000  Uiso   1.00
Ni8    Ni    0.49834   0.46781   0.45866   0.00000  Uiso   1.00
Ni9    Ni    0.33309   0.15805   0.39673   0.00000  Uiso   1.00
Ni10   Ni    0.33467   0.66177   0.39912   0.00000  Uiso   1.00
Ni11   Ni    0.83729   0.16367   0.39756   0.00000  Uiso   1.00
Ni12   Ni    0.82932   0.65967   0.39769   0.00000  Uiso   1.00
Te1    Te    0.17022   0.32921   0.40091   0.00000  Uiso   1.00
Te2    Te    0.16353   0.82548   0.39825   0.00000  Uiso   1.00
Te3    Te    0.66894   0.32862   0.39388   0.00000  Uiso   1.00
Te4    Te    0.66667   0.82527   0.40086   0.00000  Uiso   1.00
O1     O     0.31647   0.30882   0.36681   0.00000  Uiso   1.00
O2     O     0.31510   0.81761   0.36526   0.00000  Uiso   1.00
O3     O     0.82482   0.32227   0.36238   0.00000  Uiso   1.00
O4     O     0.81719   0.82003   0.36640   0.00000  Uiso   1.00
O5     O     0.18144   0.48527   0.36593   0.00000  Uiso   1.00
O6     O     0.18063  -0.00111   0.36666   0.00000  Uiso   1.00
O7     O     0.67180   0.48807   0.36275   0.00000  Uiso   1.00
O8     O     0.68677  -0.00258   0.36757   0.00000  Uiso   1.00
O9     O    -0.00039   0.17643   0.36822   0.00000  Uiso   1.00
O10    O     0.00656   0.68067   0.36407   0.00000  Uiso   1.00
O11    O     0.50707   0.17170   0.36256   0.00000  Uiso   1.00
O12    O     0.50839   0.68497   0.36518   0.00000  Uiso   1.00
O13    O    -0.00230   0.31841   0.42891   0.00000  Uiso   1.00
O14    O     0.00403   0.82012   0.42934   0.00000  Uiso   1.00
O15    O     0.49862   0.30557   0.42554   0.00000  Uiso   1.00
O16    O     0.50482   0.82706   0.42971   0.00000  Uiso   1.00
O17    O     0.17260   0.16969   0.42999   0.00000  Uiso   1.00
O18    O     0.16973   0.67211   0.42967   0.00000  Uiso   1.00
O19    O     0.68770   0.17682   0.42538   0.00000  Uiso   1.00
O20    O     0.66471   0.66405   0.42986   0.00000  Uiso   1.00
O21    O     0.32745   0.48755   0.43032   0.00000  Uiso   1.00
O22    O     0.32089  -0.00260   0.42716   0.00000  Uiso   1.00
O23    O     0.81553   0.48507   0.42732   0.00000  Uiso   1.00
O24    O     0.82242   0.99072   0.43091   0.00000  Uiso   1.00
H      H     0.50036   0.34121   0.52209   0.00000  Uiso   1.00
loop_
_geom_bond_atom_site_label_1
_geom_bond_atom_site_label_2
_geom_bond_distance
_geom_bond_site_symmetry_2
_ccdc_geom_bond_type
Mo1    Mo5     2.945   .     S
Mo1    Mo6     2.918   1_545 S
Mo1    Mo8     2.927   1_445 S
Mo1    Mo9     2.915   .     S
Mo1    Mo10    2.935   1_545 S
Mo1    Mo11    2.941   .     S
Mo1    N1      2.101   .     S
Mo1    N5      2.105   .     S
Mo1    N17     2.096   .     S
Mo1    N21     2.104   .     S
Mo1    N34     2.100   1_545 S
Mo1    N38     2.110   1_545 S
Mo2    Mo5     2.941   .     S
Mo2    Mo6     2.930   .     S
Mo2    Mo7     2.925   1_455 S
Mo2    Mo9     2.945   .     S
Mo2    Mo10    2.922   .     S
Mo2    Mo12    2.924   .     S
Mo2    N2      2.090   .     S
Mo2    N6      2.101   .     S
Mo2    N18     2.084   .     S
Mo2    N22     2.098   .     S
Mo2    N33     2.108   .     S
Mo2    N37     2.105   .     S
Mo3    Mo6     2.943   1_545 S
Mo3    Mo7     2.919   .     S
Mo3    Mo8     2.931   1_545 S
Mo3    Mo9     2.931   1_655 S
Mo3    Mo11    2.943   .     S
Mo3    Mo12    2.927   1_545 S
Mo3    N3      2.109   .     S
Mo3    N7      2.096   .     S
Mo3    N19     2.090   .     S
Mo3    N23     2.105   .     S
Mo3    N36     2.101   1_545 S
Mo3    N40     2.108   1_545 S
Mo4    Mo5     2.898   .     S
Mo4    Mo7     2.946   .     S
Mo4    Mo8     2.940   .     S
Mo4    Mo10    2.940   1_655 S
Mo4    Mo11    2.900   .     S
Mo4    Mo12    2.940   .     S
Mo4    N4      2.114   .     S
Mo4    N8      2.120   .     S
Mo4    N20     2.106   .     S
Mo4    N24     2.121   .     S
Mo4    N35     1.993   .     S
Mo4    N39     2.122   .     S
Mo5    Mo9     2.938   .     S
Mo5    Mo11    2.901   .     S
Mo5    Mo12    2.941   .     S
Mo5    N1      2.107   .     S
Mo5    N5      2.120   .     S
Mo5    N18     2.114   .     S
Mo5    N22     2.121   .     S
Mo5    N35     1.993   .     S
Mo5    N39     2.121   .     S
Mo6    Mo1     2.918   1_565 S
Mo6    Mo3     2.943   1_565 S
Mo6    Mo10    2.931   .     S
Mo6    Mo11    2.943   1_565 S
Mo6    Mo12    2.927   .     S
Mo6    N2      2.091   .     S
Mo6    N6      2.106   .     S
Mo6    N17     2.109   1_565 S
Mo6    N21     2.096   1_565 S
Mo6    N36     2.100   .     S
Mo6    N40     2.109   .     S
Mo7    Mo2     2.925   1_655 S
Mo7    Mo9     2.935   1_655 S
Mo7    Mo10    2.914   1_655 S
Mo7    Mo11    2.942   .     S
Mo7    N3      2.092   .     S
Mo7    N7      2.104   .     S
Mo7    N20     2.102   .     S
Mo7    N24     2.105   .     S
Mo7    N33     2.100   1_655 S
Mo7    N37     2.109   1_655 S
Mo8    Mo1     2.927   1_665 S
Mo8    Mo3     2.931   1_565 S
Mo8    Mo9     2.924   1_665 S
Mo8    Mo10    2.943   1_655 S
Mo8    Mo12    2.923   .     S
Mo8    N4      2.087   .     S
Mo8    N8      2.097   .     S
Mo8    N19     2.089   1_565 S
Mo8    N23     2.102   1_565 S
Mo8    N34     2.109   1_655 S
Mo8    N38     2.105   1_655 S
Mo9    Mo3     2.931   1_455 S
Mo9    Mo7     2.935   1_455 S
Mo9    Mo8     2.924   1_445 S
Mo9    N1      2.104   .     S
Mo9    N5      2.096   .     S
Mo9    N19     2.088   1_455 S
Mo9    N23     2.104   1_455 S
Mo9    N33     2.098   .     S
Mo9    N37     2.108   .     S
Mo10   Mo4     2.940   1_455 S
Mo10   Mo8     2.943   1_455 S
Mo10   Mo1     2.935   1_565 S
Mo10   Mo7     2.914   1_455 S
Mo10   N2      2.090   .     S
Mo10   N6      2.103   .     S
Mo10   N20     2.106   1_455 S
Mo10   N24     2.096   1_455 S
Mo10   N34     2.095   .     S
Mo10   N38     2.108   .     S
Mo11   Mo6     2.943   1_545 S
Mo11   N3      2.115   .     S
Mo11   N7      2.123   .     S
Mo11   N17     2.114   .     S
Mo11   N21     2.123   .     S
Mo11   N35     1.996   .     S
Mo11   N39     2.124   .     S
Mo12   Mo3     2.927   1_565 S
Mo12   N4      2.103   .     S
Mo12   N8      2.106   .     S
Mo12   N18     2.101   .     S
Mo12   N22     2.107   .     S
Mo12   N36     2.090   .     S
Mo12   N40     2.105   .     S
Si1    N5      1.759   .     S
Si1    N9      1.767   .     S
Si1    N25     1.768   .     S
Si1    N41     1.767   .     S
Si2    N6      1.758   .     S
Si2    N10     1.766   .     S
Si2    N26     1.766   .     S
Si2    N42     1.765   .     S
Si3    N7      1.760   .     S
Si3    N11     1.767   .     S
Si3    N27     1.766   .     S
Si3    N43     1.767   .     S
Si4    N8      1.758   .     S
Si4    N12     1.768   .     S
Si4    N28     1.767   .     S
Si4    N44     1.767   .     S
Si5    N1      1.804   .     S
Si5    N13     1.792   .     S
Si5    N29     1.671   .     S
Si5    N47     1.808   1_455 S
Si6    N2      1.762   .     S
Si6    N14     1.738   .     S
Si6    N30     1.738   .     S
Si6    N48     1.743   .     S
Si7    N3      1.787   .     S
Si7    N15     1.798   .     S
Si7    N31     1.797   .     S
Si7    N45     1.669   .     S
Si8    Si16    2.800   .     S
Si8    N4      1.796   .     S
Si8    N16     1.667   .     S
Si8    N32     1.813   .     S
Si8    N46     1.777   .     S
Si9    N9      1.766   .     S
Si9    N21     1.760   .     S
Si9    N26     1.767   1_545 S
Si9    N43     1.768   .     S
Si10   N10     1.767   .     S
Si10   N22     1.758   .     S
Si10   N25     1.768   .     S
Si10   N44     1.767   .     S
Si11   N11     1.766   .     S
Si11   N23     1.757   .     S
Si11   N28     1.766   1_545 S
Si11   N41     1.765   1_655 S
Si12   N12     1.768   .     S
Si12   N24     1.759   .     S
Si12   N27     1.767   .     S
Si12   N42     1.767   1_655 S
Si13   N13     1.793   .     S
Si13   N17     1.793   .     S
Si13   N30     1.798   1_545 S
Si13   N45     1.672   .     S
Si14   N14     1.814   .     S
Si14   N18     1.791   .     S
Si14   N29     1.667   .     S
Si14   N46     1.776   .     S
Si15   N15     1.736   .     S
Si15   N19     1.760   .     S
Si15   N32     1.740   1_545 S
Si15   N47     1.740   .     S
Si16   N16     1.671   .     S
Si16   N20     1.804   .     S
Si16   N31     1.794   .     S
Si16   N48     1.807   1_655 S
Si17   N10     1.767   .     S
Si17   N27     1.767   1_455 S
Si17   N37     1.756   .     S
Si17   N41     1.767   .     S
Si18   N9      1.767   1_565 S
Si18   N28     1.767   1_455 S
Si18   N38     1.756   .     S
Si18   N42     1.767   .     S
Si19   N12     1.767   .     S
Si19   N25     1.767   .     S
Si19   N39     1.746   .     S
Si19   N43     1.767   .     S
Si20   N11     1.767   1_565 S
Si20   N26     1.766   .     S
Si20   N40     1.756   .     S
Si20   N44     1.767   .     S
Si21   N14     1.756   .     S
Si21   N31     1.763   1_455 S
Si21   N33     1.763   .     S
Si21   N47     1.764   1_455 S
Si22   N13     1.764   1_565 S
Si22   N32     1.755   1_455 S
Si22   N34     1.762   .     S
Si22   N48     1.767   .     S
Si23   N15     1.766   1_565 S
Si23   N30     1.764   .     S
Si23   N36     1.764   .     S
Si23   N46     1.751   .     S
N9     Si18    1.767   1_545 S
N11    Si20    1.767   1_545 S
N13    Si22    1.764   1_545 S
N15    Si23    1.766   1_545 S
N17    Mo6     2.109   1_545 S
N19    Mo8     2.089   1_545 S
N19    Mo9     2.088   1_655 S
N20    Mo10    2.106   1_655 S
N21    Mo6     2.096   1_545 S
N23    Mo8     2.102   1_545 S
N23    Mo9     2.104   1_655 S
N24    Mo10    2.096   1_655 S
N26    Si9     1.767   1_565 S
N27    Si17    1.767   1_655 S
N28    Si11    1.766   1_565 S
N28    Si18    1.767   1_655 S
N30    Si13    1.798   1_565 S
N31    Si21    1.763   1_655 S
N32    Si15    1.740   1_565 S
N32    Si22    1.755   1_655 S
N33    Mo7     2.100   1_455 S
N34    Mo8     2.109   1_455 S
N34    Mo1     2.100   1_565 S
N36    Mo3     2.101   1_565 S
N37    Mo7     2.109   1_455 S
N38    Mo8     2.105   1_455 S
N38    Mo1     2.110   1_565 S
N40    Mo3     2.108   1_565 S
N41    Si11    1.765   1_455 S
N42    Si12    1.767   1_455 S
N47    Si5     1.808   1_655 S
N47    Si21    1.764   1_655 S
N48    Si16    1.807   1_455 S
Ni1    O4      1.845   1_445 S
Ni1    O6      1.887   .     S
Ni1    O9      1.884   .     S
Ni2    O3      1.879   1_455 S
Ni2    O5      1.879   .     S
Ni2    O10     1.883   .     S
Ni3    O2      1.856   1_545 S
Ni3    O8      1.879   .     S
Ni3    O11     1.880   .     S
Ni4    O1      1.910   .     S
Ni4    O7      1.878   .     S
Ni4    O12     1.861   .     S
Ni5    O14     1.933   1_545 S
Ni5    O17     1.929   .     S
Ni5    O24     1.926   1_445 S
Ni6    O13     1.963   .     S
Ni6    O18     1.947   .     S
Ni6    O23     1.931   1_455 S
Ni7    O16     1.950   1_545 S
Ni7    O19     2.002   .     S
Ni7    O22     2.017   .     S
Ni8    O15     2.014   .     S
Ni8    O20     2.114   .     S
Ni8    O21     2.092   .     S
Ni9    Te1     2.940   .     S
Ni9    Te2     2.924   1_545 S
Ni9    Te3     2.954   .     S
Ni9    O1      1.929   .     S
Ni9    O6      1.900   .     S
Ni9    O11     2.078   .     S
Ni9    O15     1.887   .     S
Ni9    O17     2.052   .     S
Ni9    O22     1.898   .     S
Ni10   Te1     2.924   .     S
Ni10   Te2     2.944   .     S
Ni10   Te4     2.919   .     S
Ni10   O2      2.063   .     S
Ni10   O5      2.046   .     S
Ni10   O12     2.039   .     S
Ni10   O16     2.011   .     S
Ni10   O18     2.032   .     S
Ni10   O21     2.047   .     S
Ni11   Te1     2.929   1_655 S
Ni11   Te3     2.933   .     S
Ni11   Te4     2.977   1_545 S
Ni11   O3      2.079   .     S
Ni11   O8      1.924   .     S
Ni11   O9      1.889   1_655 S
Ni11   O13     1.939   1_655 S
Ni11   O19     1.863   .     S
Ni11   O24     2.049   1_545 S
Ni12   Te2     2.938   1_655 S
Ni12   Te3     2.914   .     S
Ni12   Te4     2.888   .     S
Ni12   O4      2.015   .     S
Ni12   O7      2.073   .     S
Ni12   O10     2.069   1_655 S
Ni12   O14     2.033   1_655 S
Ni12   O20     2.033   .     S
Ni12   O23     1.996   .     S
Te1    Ni11    2.929   1_455 S
Te1    O1      1.993   .     S
Te1    O5      1.958   .     S
Te1    O9      2.005   .     S
Te1    O13     1.961   .     S
Te1    O17     1.922   .     S
Te1    O21     1.903   .     S
Te2    Ni12    2.938   1_455 S
Te2    Ni9     2.924   1_565 S
Te2    O2      1.956   .     S
Te2    O6      2.010   1_565 S
Te2    O10     1.945   .     S
Te2    O14     1.928   .     S
Te2    O18     1.931   .     S
Te2    O22     1.957   1_565 S
Te3    O3      1.955   .     S
Te3    O7      1.938   .     S
Te3    O11     1.954   .     S
Te3    O15     1.965   .     S
Te3    O19     1.979   .     S
Te3    O23     1.933   .     S
Te4    Ni11    2.977   1_565 S
Te4    O4      1.967   .     S
Te4    O8      2.023   1_565 S
Te4    O12     1.969   .     S
Te4    O16     1.935   .     S
Te4    O20     1.916   .     S
Te4    O24     1.941   .     S
O2     Ni3     1.856   1_565 S
O3     Ni2     1.879   1_655 S
O4     Ni1     1.845   1_665 S
O6     Te2     2.010   1_545 S
O8     Te4     2.023   1_545 S
O9     Ni11    1.889   1_455 S
O10    Ni12    2.069   1_455 S
O13    Ni11    1.939   1_455 S
O14    Ni12    2.033   1_455 S
O14    Ni5     1.933   1_565 S
O16    Ni7     1.950   1_565 S
O22    Te2     1.957   1_545 S
O23    Ni6     1.931   1_655 S
O24    Ni5     1.926   1_665 S
O24    Ni11    2.049   1_565 S
