data_CONTCAR\(12)
_audit_creation_date              2025-02-18
_audit_creation_method            'Materials Studio'
_symmetry_space_group_name_H-M    'P1'
_symmetry_Int_Tables_number       1
_symmetry_cell_setting            triclinic
loop_
_symmetry_equiv_pos_as_xyz
  x,y,z
_cell_length_a                    10.1502
_cell_length_b                    10.1502
_cell_length_c                    34.9384
_cell_angle_alpha                 90.0001
_cell_angle_beta                  90.0000
_cell_angle_gamma                 119.9999
loop_
_atom_site_label
_atom_site_type_symbol
_atom_site_fract_x
_atom_site_fract_y
_atom_site_fract_z
_atom_site_U_iso_or_equiv
_atom_site_adp_type
_atom_site_occupancy
Mo1    Mo    0.16665   0.99999   0.60974   0.00000  Uiso   1.00
Mo2    Mo    0.16658   0.49996   0.60986   0.00000  Uiso   1.00
Mo3    Mo    0.66676   0.00009   0.60977   0.00000  Uiso   1.00
Mo4    Mo    0.66660   0.50000   0.60974   0.00000  Uiso   1.00
Mo5    Mo    0.33343   0.33319   0.60983   0.00000  Uiso   1.00
Mo6    Mo    0.33342   0.83338   0.60983   0.00000  Uiso   1.00
Mo7    Mo    0.83347   0.33339   0.60975   0.00000  Uiso   1.00
Mo8    Mo    0.83336   0.83335   0.60972   0.00000  Uiso   1.00
Mo9    Mo    0.00011   0.16669   0.60970   0.00000  Uiso   1.00
Mo10   Mo    1.00000   0.66665   0.60980   0.00000  Uiso   1.00
Mo11   Mo    0.50006   0.16664   0.60975   0.00000  Uiso   1.00
Mo12   Mo    0.50021   0.66672   0.60987   0.00000  Uiso   1.00
Si1    Si    0.16670   0.16665   0.69602   0.00000  Uiso   1.00
Si2    Si    0.16667   0.66667   0.69603   0.00000  Uiso   1.00
Si3    Si    0.66673   0.16667   0.69602   0.00000  Uiso   1.00
Si4    Si    0.66669   0.66667   0.69602   0.00000  Uiso   1.00
Si5    Si    0.16726   0.16732   0.52342   0.00000  Uiso   1.00
Si6    Si    0.16757   0.66740   0.52370   0.00000  Uiso   1.00
Si7    Si    0.66723   0.16737   0.52349   0.00000  Uiso   1.00
Si8    Si    0.66722   0.66693   0.52338   0.00000  Uiso   1.00
Si9    Si    0.33336   1.00000   0.69603   0.00000  Uiso   1.00
Si10   Si    0.33334   0.49999   0.69603   0.00000  Uiso   1.00
Si11   Si    0.83339   0.00002   0.69601   0.00000  Uiso   1.00
Si12   Si    0.83333   0.50000   0.69603   0.00000  Uiso   1.00
Si13   Si    0.33278   0.00014   0.52360   0.00000  Uiso   1.00
Si14   Si    0.33318   0.50029   0.52418   0.00000  Uiso   1.00
Si15   Si    0.83261   0.99977   0.52346   0.00000  Uiso   1.00
Si16   Si    0.83266   0.49989   0.52362   0.00000  Uiso   1.00
Si17   Si    0.00001   0.33332   0.69603   0.00000  Uiso   1.00
Si18   Si    0.00001   0.83333   0.69602   0.00000  Uiso   1.00
Si19   Si    0.50002   0.33331   0.69602   0.00000  Uiso   1.00
Si20   Si    0.50004   0.83335   0.69603   0.00000  Uiso   1.00
Si21   Si    0.00019   0.33277   0.52339   0.00000  Uiso   1.00
Si22   Si    0.00010   0.83265   0.52351   0.00000  Uiso   1.00
Si23   Si    0.50034   0.33313   0.52339   0.00000  Uiso   1.00
Si24   Si    0.50000   0.83268   0.52375   0.00000  Uiso   1.00
N1     N     0.16738   0.16730   0.57374   0.00000  Uiso   1.00
N2     N     0.16715   0.66703   0.57389   0.00000  Uiso   1.00
N3     N     0.66704   0.16702   0.57378   0.00000  Uiso   1.00
N4     N     0.66680   0.66709   0.57376   0.00000  Uiso   1.00
N5     N     0.16667   0.16660   0.64572   0.00000  Uiso   1.00
N6     N     0.16668   0.66672   0.64576   0.00000  Uiso   1.00
N7     N     0.66680   0.16677   0.64572   0.00000  Uiso   1.00
N8     N     0.66684   0.66674   0.64573   0.00000  Uiso   1.00
N9     N     0.16668   0.99998   0.71058   0.00000  Uiso   1.00
N10    N     0.16666   0.49999   0.71058   0.00000  Uiso   1.00
N11    N     0.66674   0.00002   0.71057   0.00000  Uiso   1.00
N12    N     0.66666   0.49999   0.71058   0.00000  Uiso   1.00
N13    N     0.16597   0.00005   0.50931   0.00000  Uiso   1.00
N14    N     0.16711   0.50058   0.50927   0.00000  Uiso   1.00
N15    N     0.66540   0.99980   0.50918   0.00000  Uiso   1.00
N16    N     0.66622   0.50009   0.50939   0.00000  Uiso   1.00
N17    N     0.33302   0.99983   0.57385   0.00000  Uiso   1.00
N18    N     0.33314   0.50001   0.57412   0.00000  Uiso   1.00
N19    N     0.83283   0.99989   0.57376   0.00000  Uiso   1.00
N20    N     0.83314   0.50007   0.57388   0.00000  Uiso   1.00
N21    N     0.33333   0.00003   0.64573   0.00000  Uiso   1.00
N22    N     0.33335   0.49992   0.64578   0.00000  Uiso   1.00
N23    N     0.83342   0.00006   0.64570   0.00000  Uiso   1.00
N24    N     0.83328   0.49997   0.64573   0.00000  Uiso   1.00
N25    N     0.33336   0.33330   0.71058   0.00000  Uiso   1.00
N26    N     0.33336   0.83334   0.71058   0.00000  Uiso   1.00
N27    N     0.83337   0.33334   0.71058   0.00000  Uiso   1.00
N28    N     0.83336   0.83335   0.71057   0.00000  Uiso   1.00
N29    N     0.33442   0.33523   0.50905   0.00000  Uiso   1.00
N30    N     0.33446   0.83426   0.50924   0.00000  Uiso   1.00
N31    N     0.83436   0.33424   0.50932   0.00000  Uiso   1.00
N32    N     0.83424   0.83389   0.50919   0.00000  Uiso   1.00
N33    N     0.00038   0.33329   0.57374   0.00000  Uiso   1.00
N34    N     0.00003   0.83284   0.57379   0.00000  Uiso   1.00
N35    N     0.49979   0.33288   0.57374   0.00000  Uiso   1.00
N36    N     0.50003   0.83285   0.57391   0.00000  Uiso   1.00
N37    N     0.99999   0.33320   0.64573   0.00000  Uiso   1.00
N38    N     0.99999   0.83333   0.64572   0.00000  Uiso   1.00
N39    N     0.50007   0.33323   0.64573   0.00000  Uiso   1.00
N40    N     0.50015   0.83342   0.64576   0.00000  Uiso   1.00
N41    N     0.00004   0.16666   0.71057   0.00000  Uiso   1.00
N42    N     0.99999   0.66667   0.71058   0.00000  Uiso   1.00
N43    N     0.50004   0.16665   0.71057   0.00000  Uiso   1.00
N44    N     0.50003   0.66667   0.71059   0.00000  Uiso   1.00
N45    N     0.49975   0.16576   0.50923   0.00000  Uiso   1.00
N46    N     0.49935   0.66546   0.50919   0.00000  Uiso   1.00
N47    N     0.99977   0.16552   0.50930   0.00000  Uiso   1.00
N48    N     0.00025   0.66552   0.50923   0.00000  Uiso   1.00
Ni1    Ni    0.00231   0.01043   0.35180   0.00000  Uiso   1.00
Ni2    Ni    0.00012   0.49812   0.34975   0.00000  Uiso   1.00
Ni3    Ni    0.50293   0.00104   0.34958   0.00000  Uiso   1.00
Ni4    Ni    0.49904   0.49547   0.34823   0.00000  Uiso   1.00
Ni5    Ni    0.00174   0.00066   0.44114   0.00000  Uiso   1.00
Ni6    Ni    0.99835   0.50321   0.44135   0.00000  Uiso   1.00
Ni7    Ni    0.49838   0.99577   0.44103   0.00000  Uiso   1.00
Ni8    Ni    0.47788   0.49331   0.43663   0.00000  Uiso   1.00
Ni9    Ni    0.33199   0.16476   0.39443   0.00000  Uiso   1.00
Ni10   Ni    0.33344   0.66993   0.39101   0.00000  Uiso   1.00
Ni11   Ni    0.83980   0.17111   0.39804   0.00000  Uiso   1.00
Ni12   Ni    0.83079   0.66497   0.39558   0.00000  Uiso   1.00
Te1    Te    0.18479   0.34818   0.39756   0.00000  Uiso   1.00
Te2    Te    0.16476   0.83201   0.39446   0.00000  Uiso   1.00
Te3    Te    0.66565   0.33282   0.39530   0.00000  Uiso   1.00
Te4    Te    0.66676   0.83294   0.39462   0.00000  Uiso   1.00
O1     O     0.31927   0.32005   0.35993   0.00000  Uiso   1.00
O2     O     0.31724   0.82696   0.36073   0.00000  Uiso   1.00
O3     O     0.82032   0.32414   0.36429   0.00000  Uiso   1.00
O4     O     0.82214   0.82771   0.36342   0.00000  Uiso   1.00
O5     O     0.17785   0.49692   0.36053   0.00000  Uiso   1.00
O6     O     0.17288   0.99220   0.36238   0.00000  Uiso   1.00
O7     O     0.67580   0.49315   0.36243   0.00000  Uiso   1.00
O8     O     0.67912   0.99745   0.36352   0.00000  Uiso   1.00
O9     O     0.01535   0.19139   0.36701   0.00000  Uiso   1.00
O10    O     0.00325   0.67883   0.36284   0.00000  Uiso   1.00
O11    O     0.50720   0.18103   0.36246   0.00000  Uiso   1.00
O12    O     0.50763   0.68033   0.36132   0.00000  Uiso   1.00
O13    O     0.01379   0.33202   0.43031   0.00000  Uiso   1.00
O14    O     0.00540   0.82183   0.42788   0.00000  Uiso   1.00
O15    O     0.50137   0.32489   0.42695   0.00000  Uiso   1.00
O16    O     0.49896   0.81714   0.42589   0.00000  Uiso   1.00
O17    O     0.17945   0.18001   0.42910   0.00000  Uiso   1.00
O18    O     0.17886   0.67856   0.42574   0.00000  Uiso   1.00
O19    O     0.67245   0.18073   0.42843   0.00000  Uiso   1.00
O20    O     0.66178   0.67249   0.42666   0.00000  Uiso   1.00
O21    O     0.31804   0.99120   0.42690   0.00000  Uiso   1.00
O22    O     0.81485   0.49322   0.42823   0.00000  Uiso   1.00
O23    O     0.81492   0.98855   0.42889   0.00000  Uiso   1.00
H      H     0.32709   0.49020   0.42996   0.00000  Uiso   1.00
loop_
_geom_bond_atom_site_label_1
_geom_bond_atom_site_label_2
_geom_bond_distance
_geom_bond_site_symmetry_2
_ccdc_geom_bond_type
Mo1    Mo5     2.929   1_565 S
Mo1    Mo6     2.931   .     S
Mo1    Mo8     2.930   1_455 S
Mo1    Mo9     2.929   1_565 S
Mo1    Mo10    2.930   1_455 S
Mo1    Mo11    2.931   1_565 S
Mo1    N1      2.110   1_565 S
Mo1    N5      2.107   1_565 S
Mo1    N17     2.104   .     S
Mo1    N21     2.108   1_565 S
Mo1    N34     2.109   .     S
Mo1    N38     2.107   1_455 S
Mo2    Mo5     2.933   .     S
Mo2    Mo6     2.931   .     S
Mo2    Mo7     2.928   1_455 S
Mo2    Mo9     2.930   .     S
Mo2    Mo10    2.930   1_455 S
Mo2    Mo12    2.933   .     S
Mo2    N2      2.108   .     S
Mo2    N6      2.106   .     S
Mo2    N18     2.101   .     S
Mo2    N22     2.108   .     S
Mo2    N33     2.109   .     S
Mo2    N37     2.105   1_455 S
Mo3    Mo6     2.930   1_545 S
Mo3    Mo7     2.930   .     S
Mo3    Mo8     2.930   1_545 S
Mo3    Mo9     2.930   1_655 S
Mo3    Mo11    2.929   .     S
Mo3    Mo12    2.930   1_545 S
Mo3    N3      2.109   .     S
Mo3    N7      2.107   .     S
Mo3    N19     2.104   1_545 S
Mo3    N23     2.107   .     S
Mo3    N36     2.108   1_545 S
Mo3    N40     2.108   1_545 S
Mo4    Mo5     2.929   .     S
Mo4    Mo7     2.931   .     S
Mo4    Mo8     2.930   .     S
Mo4    Mo10    2.931   .     S
Mo4    Mo11    2.930   .     S
Mo4    Mo12    2.928   .     S
Mo4    N4      2.110   .     S
Mo4    N8      2.108   .     S
Mo4    N20     2.104   .     S
Mo4    N24     2.108   .     S
Mo4    N35     2.110   .     S
Mo4    N39     2.108   .     S
Mo5    Mo1     2.929   1_545 S
Mo5    Mo9     2.930   .     S
Mo5    Mo11    2.929   .     S
Mo5    Mo12    2.932   .     S
Mo5    N1      2.104   .     S
Mo5    N5      2.106   .     S
Mo5    N18     2.104   .     S
Mo5    N22     2.108   .     S
Mo5    N35     2.108   .     S
Mo5    N39     2.106   .     S
Mo6    Mo3     2.930   1_565 S
Mo6    Mo10    2.931   1_455 S
Mo6    Mo11    2.930   1_565 S
Mo6    Mo12    2.931   .     S
Mo6    N2      2.104   .     S
Mo6    N6      2.107   .     S
Mo6    N17     2.107   .     S
Mo6    N21     2.106   1_565 S
Mo6    N36     2.108   .     S
Mo6    N40     2.107   .     S
Mo7    Mo2     2.928   1_655 S
Mo7    Mo9     2.930   1_655 S
Mo7    Mo10    2.929   .     S
Mo7    Mo11    2.931   .     S
Mo7    N3      2.105   .     S
Mo7    N7      2.107   .     S
Mo7    N20     2.107   .     S
Mo7    N24     2.108   .     S
Mo7    N33     2.111   1_655 S
Mo7    N37     2.107   .     S
Mo8    Mo1     2.930   1_655 S
Mo8    Mo3     2.930   1_565 S
Mo8    Mo9     2.930   1_665 S
Mo8    Mo10    2.930   .     S
Mo8    Mo12    2.929   .     S
Mo8    N4      2.105   .     S
Mo8    N8      2.107   .     S
Mo8    N19     2.108   .     S
Mo8    N23     2.108   1_565 S
Mo8    N34     2.109   1_655 S
Mo8    N38     2.108   .     S
Mo9    Mo3     2.930   1_455 S
Mo9    Mo7     2.930   1_455 S
Mo9    Mo1     2.929   1_545 S
Mo9    Mo8     2.930   1_445 S
Mo9    N1      2.110   .     S
Mo9    N5      2.108   .     S
Mo9    N19     2.110   1_445 S
Mo9    N23     2.108   1_455 S
Mo9    N33     2.105   .     S
Mo9    N37     2.108   1_455 S
Mo10   Mo6     2.931   1_655 S
Mo10   Mo1     2.930   1_655 S
Mo10   Mo2     2.930   1_655 S
Mo10   N2      2.108   1_655 S
Mo10   N6      2.107   1_655 S
Mo10   N20     2.107   .     S
Mo10   N24     2.107   .     S
Mo10   N34     2.104   1_655 S
Mo10   N38     2.107   .     S
Mo11   Mo1     2.931   1_545 S
Mo11   Mo6     2.930   1_545 S
Mo11   N3      2.108   .     S
Mo11   N7      2.108   .     S
Mo11   N17     2.108   1_545 S
Mo11   N21     2.108   .     S
Mo11   N35     2.106   .     S
Mo11   N39     2.107   .     S
Mo12   Mo3     2.930   1_565 S
Mo12   N4      2.108   .     S
Mo12   N8      2.105   .     S
Mo12   N18     2.105   .     S
Mo12   N22     2.108   .     S
Mo12   N36     2.104   .     S
Mo12   N40     2.106   .     S
Si1    N5      1.758   .     S
Si1    N9      1.766   1_545 S
Si1    N25     1.766   .     S
Si1    N41     1.766   .     S
Si2    N6      1.756   .     S
Si2    N10     1.767   .     S
Si2    N26     1.767   .     S
Si2    N42     1.767   1_455 S
Si3    N7      1.758   .     S
Si3    N11     1.766   .     S
Si3    N27     1.766   .     S
Si3    N43     1.767   .     S
Si4    N8      1.757   .     S
Si4    N12     1.766   .     S
Si4    N28     1.766   .     S
Si4    N44     1.766   .     S
Si5    N1      1.758   .     S
Si5    N13     1.762   .     S
Si5    N29     1.773   .     S
Si5    N47     1.761   1_455 S
Si6    N2      1.754   .     S
Si6    N14     1.764   .     S
Si6    N30     1.768   .     S
Si6    N48     1.763   .     S
Si7    N3      1.757   .     S
Si7    N15     1.764   1_545 S
Si7    N31     1.766   .     S
Si7    N45     1.764   .     S
Si8    N4      1.760   .     S
Si8    N16     1.758   .     S
Si8    N32     1.766   .     S
Si8    N46     1.768   .     S
Si9    N9      1.766   .     S
Si9    N21     1.757   1_565 S
Si9    N26     1.766   .     S
Si9    N43     1.766   1_565 S
Si10   N10     1.767   .     S
Si10   N22     1.755   .     S
Si10   N25     1.767   .     S
Si10   N44     1.767   .     S
Si11   N11     1.767   .     S
Si11   N23     1.758   .     S
Si11   N28     1.766   1_545 S
Si11   N41     1.766   1_655 S
Si12   N12     1.766   .     S
Si12   N24     1.757   .     S
Si12   N27     1.767   .     S
Si12   N42     1.766   .     S
Si13   N13     1.765   .     S
Si13   N17     1.756   1_545 S
Si13   N30     1.765   1_545 S
Si13   N45     1.761   .     S
Si14   N14     1.766   .     S
Si14   N18     1.745   .     S
Si14   N29     1.763   .     S
Si14   N46     1.761   .     S
Si15   N15     1.769   .     S
Si15   N19     1.757   .     S
Si15   N32     1.764   .     S
Si15   N47     1.761   1_565 S
Si16   N16     1.762   .     S
Si16   N20     1.756   .     S
Si16   N31     1.762   .     S
Si16   N48     1.764   1_655 S
Si17   N10     1.766   .     S
Si17   N27     1.766   1_455 S
Si17   N37     1.757   1_455 S
Si17   N41     1.766   .     S
Si18   N9      1.766   .     S
Si18   N28     1.766   1_455 S
Si18   N38     1.758   1_455 S
Si18   N42     1.766   1_455 S
Si19   N12     1.766   .     S
Si19   N25     1.766   .     S
Si19   N39     1.757   .     S
Si19   N43     1.766   .     S
Si20   N11     1.767   1_565 S
Si20   N26     1.767   .     S
Si20   N40     1.756   .     S
Si20   N44     1.767   .     S
Si21   N14     1.769   .     S
Si21   N31     1.761   1_455 S
Si21   N33     1.759   .     S
Si21   N47     1.766   1_455 S
Si22   N13     1.763   1_565 S
Si22   N32     1.762   1_455 S
Si22   N34     1.757   .     S
Si22   N48     1.769   .     S
Si23   N16     1.759   .     S
Si23   N29     1.767   .     S
Si23   N35     1.759   .     S
Si23   N45     1.767   .     S
Si24   N15     1.763   .     S
Si24   N30     1.763   .     S
Si24   N36     1.753   .     S
Si24   N46     1.769   .     S
N1     Mo1     2.110   1_545 S
N2     Mo10    2.108   1_455 S
N5     Mo1     2.107   1_545 S
N6     Mo10    2.107   1_455 S
N9     Si1     1.766   1_565 S
N11    Si20    1.767   1_545 S
N13    Si22    1.763   1_545 S
N15    Si7     1.764   1_565 S
N17    Mo11    2.108   1_565 S
N17    Si13    1.756   1_565 S
N19    Mo9     2.110   1_665 S
N19    Mo3     2.104   1_565 S
N21    Si9     1.757   1_545 S
N21    Mo1     2.108   1_545 S
N21    Mo6     2.106   1_545 S
N23    Mo8     2.108   1_545 S
N23    Mo9     2.108   1_655 S
N27    Si17    1.766   1_655 S
N28    Si11    1.766   1_565 S
N28    Si18    1.766   1_655 S
N30    Si13    1.765   1_565 S
N31    Si21    1.761   1_655 S
N32    Si22    1.762   1_655 S
N33    Mo7     2.111   1_455 S
N34    Mo8     2.109   1_455 S
N34    Mo10    2.104   1_455 S
N36    Mo3     2.108   1_565 S
N37    Si17    1.757   1_655 S
N37    Mo2     2.105   1_655 S
N37    Mo9     2.108   1_655 S
N38    Si18    1.758   1_655 S
N38    Mo1     2.107   1_655 S
N40    Mo3     2.108   1_565 S
N41    Si11    1.766   1_455 S
N42    Si2     1.767   1_655 S
N42    Si18    1.766   1_655 S
N43    Si9     1.766   1_545 S
N47    Si15    1.761   1_545 S
N47    Si5     1.761   1_655 S
N47    Si21    1.766   1_655 S
N48    Si16    1.764   1_455 S
Ni1    O4      1.886   1_445 S
Ni1    O6      1.868   1_545 S
Ni1    O9      1.852   .     S
Ni2    O3      1.867   1_455 S
Ni2    O5      1.849   .     S
Ni2    O10     1.875   .     S
Ni3    O2      1.870   1_545 S
Ni3    O8      1.871   1_545 S
Ni3    O11     1.861   .     S
Ni4    O1      1.849   .     S
Ni4    O7      1.873   .     S
Ni4    O12     1.890   .     S
Ni5    O14     1.892   1_545 S
Ni5    O17     1.860   .     S
Ni5    O23     1.887   1_445 S
Ni6    O13     1.861   1_655 S
Ni6    O18     1.887   1_655 S
Ni6    O22     1.871   .     S
Ni7    O16     1.892   .     S
Ni7    O19     1.877   1_565 S
Ni7    O21     1.874   .     S
Ni8    Te1     2.916   .     S
Ni8    O15     1.871   .     S
Ni8    O20     1.876   .     S
Ni9    Te1     2.914   .     S
Ni9    Te2     2.925   1_545 S
Ni9    Te3     2.933   .     S
Ni9    O1      2.039   .     S
Ni9    O6      2.025   1_545 S
Ni9    O11     2.036   .     S
Ni9    O15     2.023   .     S
Ni9    O17     2.032   .     S
Ni9    O21     2.040   1_545 S
Ni10   Te1     2.840   .     S
Ni10   Te2     2.910   .     S
Ni10   Te4     2.933   .     S
Ni10   O2      1.987   .     S
Ni10   O5      1.985   .     S
Ni10   O12     2.007   .     S
Ni10   O16     2.008   .     S
Ni10   O18     2.020   .     S
Ni11   Te3     2.954   .     S
Ni11   O3      2.037   .     S
Ni11   O8      2.085   1_545 S
Ni11   O9      2.006   1_655 S
Ni11   O13     2.043   1_655 S
Ni11   O19     2.047   .     S
Ni11   O23     2.047   1_545 S
Ni12   Te2     2.936   1_655 S
Ni12   Te3     2.920   .     S
Ni12   Te4     2.919   .     S
Ni12   O4      2.036   .     S
Ni12   O7      2.028   .     S
Ni12   O10     2.036   1_655 S
Ni12   O14     2.032   1_655 S
Ni12   O20     2.064   .     S
Ni12   O22     2.021   .     S
Te1    O1      2.016   .     S
Te1    O5      2.016   .     S
Te1    O9      1.973   .     S
Te1    O13     2.016   .     S
Te1    O17     2.010   .     S
Te2    Ni12    2.936   1_455 S
Te2    Ni9     2.925   1_565 S
Te2    O2      1.966   .     S
Te2    O6      1.942   .     S
Te2    O10     1.943   .     S
Te2    O14     1.955   .     S
Te2    O18     1.966   .     S
Te2    O21     1.950   .     S
Te3    O3      1.945   .     S
Te3    O7      1.952   .     S
Te3    O11     1.949   .     S
Te3    O15     1.969   .     S
Te3    O19     1.958   .     S
Te3    O22     1.950   .     S
Te4    O4      1.940   .     S
Te4    O8      1.943   .     S
Te4    O12     1.965   .     S
Te4    O16     1.961   .     S
Te4    O20     1.956   .     S
Te4    O23     1.953   .     S
O2     Ni3     1.870   1_565 S
O3     Ni2     1.867   1_655 S
O4     Ni1     1.886   1_665 S
O6     Ni9     2.025   1_565 S
O6     Ni1     1.868   1_565 S
O8     Ni11    2.085   1_565 S
O8     Ni3     1.871   1_565 S
O9     Ni11    2.006   1_455 S
O10    Ni12    2.036   1_455 S
O13    Ni6     1.861   1_455 S
O13    Ni11    2.043   1_455 S
O14    Ni12    2.032   1_455 S
O14    Ni5     1.892   1_565 S
O18    Ni6     1.887   1_455 S
O19    Ni7     1.877   1_545 S
O21    Ni9     2.040   1_565 S
O23    Ni5     1.887   1_665 S
O23    Ni11    2.047   1_565 S
