data_CONTCAR\(14)
_audit_creation_date              2025-02-18
_audit_creation_method            'Materials Studio'
_symmetry_space_group_name_H-M    'P1'
_symmetry_Int_Tables_number       1
_symmetry_cell_setting            triclinic
loop_
_symmetry_equiv_pos_as_xyz
  x,y,z
_cell_length_a                    10.1502
_cell_length_b                    10.1502
_cell_length_c                    34.9384
_cell_angle_alpha                 90.0001
_cell_angle_beta                  90.0000
_cell_angle_gamma                 119.9999
loop_
_atom_site_label
_atom_site_type_symbol
_atom_site_fract_x
_atom_site_fract_y
_atom_site_fract_z
_atom_site_U_iso_or_equiv
_atom_site_adp_type
_atom_site_occupancy
Mo1    Mo    0.16739   0.00065   0.60912   0.00000  Uiso   1.00
Mo2    Mo    0.16647   0.50069   0.60909   0.00000  Uiso   1.00
Mo3    Mo    0.66696   0.99969   0.60904   0.00000  Uiso   1.00
Mo4    Mo    0.66682   0.50055   0.60911   0.00000  Uiso   1.00
Mo5    Mo    0.33359   0.33381   0.60910   0.00000  Uiso   1.00
Mo6    Mo    0.33372   0.83300   0.60904   0.00000  Uiso   1.00
Mo7    Mo    0.83308   0.33368   0.60909   0.00000  Uiso   1.00
Mo8    Mo    0.83395   0.83453   0.60912   0.00000  Uiso   1.00
Mo9    Mo    0.00015   0.16713   0.60910   0.00000  Uiso   1.00
Mo10   Mo    0.00026   0.66723   0.60907   0.00000  Uiso   1.00
Mo11   Mo    0.50024   0.16671   0.60908   0.00000  Uiso   1.00
Mo12   Mo    0.50016   0.66647   0.60937   0.00000  Uiso   1.00
Si1    Si    0.16687   0.16695   0.69540   0.00000  Uiso   1.00
Si2    Si    0.16679   0.66690   0.69542   0.00000  Uiso   1.00
Si3    Si    0.66675   0.16684   0.69535   0.00000  Uiso   1.00
Si4    Si    0.66687   0.66697   0.69546   0.00000  Uiso   1.00
Si5    Si    0.16884   0.17081   0.52284   0.00000  Uiso   1.00
Si6    Si    0.16896   0.66961   0.52266   0.00000  Uiso   1.00
Si7    Si    0.66554   0.16725   0.52281   0.00000  Uiso   1.00
Si8    Si    0.67348   0.68258   0.52300   0.00000  Uiso   1.00
Si9    Si    0.33348   0.00027   0.69533   0.00000  Uiso   1.00
Si10   Si    0.33339   0.50019   0.69543   0.00000  Uiso   1.00
Si11   Si    0.83351   0.00038   0.69543   0.00000  Uiso   1.00
Si12   Si    0.83341   0.50026   0.69537   0.00000  Uiso   1.00
Si13   Si    0.33642   0.00150   0.52284   0.00000  Uiso   1.00
Si14   Si    0.32673   0.50589   0.52291   0.00000  Uiso   1.00
Si15   Si    0.83311   0.00215   0.52270   0.00000  Uiso   1.00
Si16   Si    0.83174   0.50377   0.52274   0.00000  Uiso   1.00
Si17   Si    0.00011   0.33361   0.69538   0.00000  Uiso   1.00
Si18   Si    0.00013   0.83361   0.69539   0.00000  Uiso   1.00
Si19   Si    0.50013   0.33359   0.69541   0.00000  Uiso   1.00
Si20   Si    0.50015   0.83352   0.69543   0.00000  Uiso   1.00
Si21   Si    0.99556   0.33237   0.52303   0.00000  Uiso   1.00
Si22   Si    0.00566   0.83697   0.52300   0.00000  Uiso   1.00
Si23   Si    0.50040   0.33806   0.52297   0.00000  Uiso   1.00
Si24   Si    0.50363   0.82025   0.52282   0.00000  Uiso   1.00
N1     N     0.16757   0.16807   0.57315   0.00000  Uiso   1.00
N2     N     0.16758   0.66786   0.57307   0.00000  Uiso   1.00
N3     N     0.66685   0.16658   0.57319   0.00000  Uiso   1.00
N4     N     0.66689   0.66830   0.57318   0.00000  Uiso   1.00
N5     N     0.16707   0.16720   0.64507   0.00000  Uiso   1.00
N6     N     0.16689   0.66708   0.64510   0.00000  Uiso   1.00
N7     N     0.66673   0.16676   0.64505   0.00000  Uiso   1.00
N8     N     0.66733   0.66727   0.64514   0.00000  Uiso   1.00
N9     N     0.16683   0.00025   0.70992   0.00000  Uiso   1.00
N10    N     0.16671   0.50029   0.70997   0.00000  Uiso   1.00
N11    N     0.66675   0.00027   0.70997   0.00000  Uiso   1.00
N12    N     0.66680   0.50024   0.70996   0.00000  Uiso   1.00
N13    N     0.17050   0.00416   0.50872   0.00000  Uiso   1.00
N14    N     0.15689   0.49832   0.50802   0.00000  Uiso   1.00
N15    N     0.66488   0.99994   0.50846   0.00000  Uiso   1.00
N16    N     0.66486   0.50784   0.50865   0.00000  Uiso   1.00
N17    N     0.33378   0.99963   0.57319   0.00000  Uiso   1.00
N18    N     0.33316   0.50098   0.57314   0.00000  Uiso   1.00
N19    N     0.83309   0.00052   0.57311   0.00000  Uiso   1.00
N20    N     0.83261   0.50096   0.57309   0.00000  Uiso   1.00
N21    N     0.33371   0.00009   0.64506   0.00000  Uiso   1.00
N22    N     0.33291   0.49995   0.64514   0.00000  Uiso   1.00
N23    N     0.83354   0.00045   0.64513   0.00000  Uiso   1.00
N24    N     0.83339   0.50046   0.64507   0.00000  Uiso   1.00
N25    N     0.33350   0.33358   0.70997   0.00000  Uiso   1.00
N26    N     0.33351   0.83359   0.70996   0.00000  Uiso   1.00
N27    N     0.83339   0.33354   0.70993   0.00000  Uiso   1.00
N28    N     0.83351   0.83372   0.70998   0.00000  Uiso   1.00
N29    N     0.33499   0.34030   0.50861   0.00000  Uiso   1.00
N30    N     0.33889   0.83473   0.50849   0.00000  Uiso   1.00
N31    N     0.83109   0.33567   0.50870   0.00000  Uiso   1.00
N32    N     0.84496   0.84260   0.50799   0.00000  Uiso   1.00
N33    N     0.99921   0.33316   0.57325   0.00000  Uiso   1.00
N34    N     0.00123   0.83417   0.57326   0.00000  Uiso   1.00
N35    N     0.50035   0.33374   0.57321   0.00000  Uiso   1.00
N36    N     0.50046   0.82917   0.57312   0.00000  Uiso   1.00
N37    N     0.99994   0.33376   0.64507   0.00000  Uiso   1.00
N38    N     0.00052   0.83397   0.64508   0.00000  Uiso   1.00
N39    N     0.50021   0.33361   0.64507   0.00000  Uiso   1.00
N40    N     0.50026   0.83296   0.64513   0.00000  Uiso   1.00
N41    N     0.00023   0.16703   0.70994   0.00000  Uiso   1.00
N42    N     0.00008   0.66690   0.70993   0.00000  Uiso   1.00
N43    N     0.50010   0.16691   0.70995   0.00000  Uiso   1.00
N44    N     0.50012   0.66684   0.71001   0.00000  Uiso   1.00
N45    N     0.50053   0.16965   0.50874   0.00000  Uiso   1.00
N46    N     0.00022   0.16805   0.50875   0.00000  Uiso   1.00
N47    N     0.00126   0.66842   0.50871   0.00000  Uiso   1.00
Ni1    Ni    0.99818   0.99726   0.35129   0.00000  Uiso   1.00
Ni2    Ni    0.99968   0.49854   0.35099   0.00000  Uiso   1.00
Ni3    Ni    0.49891   0.99826   0.35095   0.00000  Uiso   1.00
Ni4    Ni    0.49999   0.49875   0.35107   0.00000  Uiso   1.00
Ni5    Ni    0.99989   0.99844   0.44327   0.00000  Uiso   1.00
Ni6    Ni    0.99962   0.49813   0.44314   0.00000  Uiso   1.00
Ni7    Ni    0.49861   0.99734   0.44374   0.00000  Uiso   1.00
Ni8    Ni    0.49869   0.49523   0.44240   0.00000  Uiso   1.00
Ni9    Ni    0.33276   0.16469   0.39581   0.00000  Uiso   1.00
Ni10   Ni    0.33260   0.66507   0.39665   0.00000  Uiso   1.00
Ni11   Ni    0.83274   0.16466   0.39632   0.00000  Uiso   1.00
Ni12   Ni    0.83262   0.66455   0.39686   0.00000  Uiso   1.00
Te1    Te    0.16597   0.33160   0.39608   0.00000  Uiso   1.00
Te2    Te    0.16600   0.83165   0.39614   0.00000  Uiso   1.00
Te3    Te    0.66624   0.33086   0.39608   0.00000  Uiso   1.00
Te4    Te    0.66555   0.83138   0.39684   0.00000  Uiso   1.00
O1     O     0.31806   0.32356   0.36354   0.00000  Uiso   1.00
O2     O     0.31804   0.82240   0.36382   0.00000  Uiso   1.00
O3     O     0.81818   0.32261   0.36354   0.00000  Uiso   1.00
O4     O     0.81692   0.82198   0.36439   0.00000  Uiso   1.00
O5     O     0.17517   0.49257   0.36374   0.00000  Uiso   1.00
O6     O     0.17424   0.99161   0.36345   0.00000  Uiso   1.00
O7     O     0.67511   0.49261   0.36403   0.00000  Uiso   1.00
O8     O     0.67315   0.99087   0.36429   0.00000  Uiso   1.00
O9     O     0.00532   0.17953   0.36359   0.00000  Uiso   1.00
O10    O     0.00496   0.67951   0.36383   0.00000  Uiso   1.00
O11    O     0.50606   0.18049   0.36316   0.00000  Uiso   1.00
O12    O     0.50549   0.67960   0.36433   0.00000  Uiso   1.00
O13    O     0.00576   0.32309   0.42843   0.00000  Uiso   1.00
O14    O     0.00590   0.82336   0.42861   0.00000  Uiso   1.00
O15    O     0.50502   0.32093   0.42846   0.00000  Uiso   1.00
O16    O     0.50503   0.82062   0.43008   0.00000  Uiso   1.00
O17    O     0.17496   0.17958   0.42829   0.00000  Uiso   1.00
O18    O     0.17441   0.67982   0.42863   0.00000  Uiso   1.00
O19    O     0.67367   0.17821   0.42835   0.00000  Uiso   1.00
O20    O     0.67306   0.67887   0.42982   0.00000  Uiso   1.00
O21    O     0.31891   0.49236   0.42874   0.00000  Uiso   1.00
O22    O     0.31869   0.99247   0.42823   0.00000  Uiso   1.00
O23    O     0.81772   0.49113   0.42864   0.00000  Uiso   1.00
O24    O     0.81806   0.99223   0.42884   0.00000  Uiso   1.00
H      H     0.49892   0.65973   0.50955   0.00000  Uiso   1.00
loop_
_geom_bond_atom_site_label_1
_geom_bond_atom_site_label_2
_geom_bond_distance
_geom_bond_site_symmetry_2
_ccdc_geom_bond_type
Mo1    Mo5     2.929   .     S
Mo1    Mo6     2.936   1_545 S
Mo1    Mo8     2.931   1_445 S
Mo1    Mo9     2.934   .     S
Mo1    Mo10    2.931   1_545 S
Mo1    Mo11    2.926   .     S
Mo1    N1      2.113   .     S
Mo1    N5      2.107   .     S
Mo1    N17     2.108   1_545 S
Mo1    N21     2.106   .     S
Mo1    N34     2.102   1_545 S
Mo1    N38     2.108   1_545 S
Mo2    Mo5     2.936   .     S
Mo2    Mo6     2.921   .     S
Mo2    Mo7     2.931   1_455 S
Mo2    Mo9     2.932   .     S
Mo2    Mo10    2.925   .     S
Mo2    Mo12    2.933   .     S
Mo2    N2      2.108   .     S
Mo2    N6      2.104   .     S
Mo2    N18     2.106   .     S
Mo2    N22     2.110   .     S
Mo2    N33     2.111   1_455 S
Mo2    N37     2.108   1_455 S
Mo3    Mo6     2.929   .     S
Mo3    Mo7     2.936   1_565 S
Mo3    Mo8     2.920   .     S
Mo3    Mo9     2.929   1_665 S
Mo3    Mo11    2.934   1_565 S
Mo3    Mo12    2.929   .     S
Mo3    N3      2.107   1_565 S
Mo3    N7      2.112   1_565 S
Mo3    N19     2.099   1_565 S
Mo3    N23     2.106   1_565 S
Mo3    N36     2.122   .     S
Mo3    N40     2.110   .     S
Mo4    Mo5     2.929   .     S
Mo4    Mo7     2.928   .     S
Mo4    Mo8     2.936   .     S
Mo4    Mo10    2.931   1_655 S
Mo4    Mo11    2.935   .     S
Mo4    Mo12    2.923   .     S
Mo4    N4      2.115   .     S
Mo4    N8      2.107   .     S
Mo4    N20     2.100   .     S
Mo4    N24     2.107   .     S
Mo4    N35     2.106   .     S
Mo4    N39     2.108   .     S
Mo5    Mo9     2.931   .     S
Mo5    Mo11    2.934   .     S
Mo5    Mo12    2.924   .     S
Mo5    N1      2.101   .     S
Mo5    N5      2.107   .     S
Mo5    N18     2.113   .     S
Mo5    N22     2.107   .     S
Mo5    N35     2.107   .     S
Mo5    N39     2.108   .     S
Mo6    Mo1     2.936   1_565 S
Mo6    Mo10    2.931   .     S
Mo6    Mo11    2.933   1_565 S
Mo6    Mo12    2.927   .     S
Mo6    N2      2.099   .     S
Mo6    N6      2.107   .     S
Mo6    N17     2.104   .     S
Mo6    N21     2.112   1_565 S
Mo6    N36     2.123   .     S
Mo6    N40     2.109   .     S
Mo7    Mo2     2.931   1_655 S
Mo7    Mo3     2.936   1_545 S
Mo7    Mo9     2.933   1_655 S
Mo7    Mo10    2.932   1_655 S
Mo7    Mo11    2.926   .     S
Mo7    N3      2.106   .     S
Mo7    N7      2.107   .     S
Mo7    N20     2.115   .     S
Mo7    N24     2.107   .     S
Mo7    N33     2.102   .     S
Mo7    N37     2.109   .     S
Mo8    Mo1     2.931   1_665 S
Mo8    Mo9     2.924   1_665 S
Mo8    Mo10    2.933   1_655 S
Mo8    Mo12    2.934   .     S
Mo8    N4      2.107   .     S
Mo8    N8      2.111   .     S
Mo8    N19     2.106   1_565 S
Mo8    N23     2.104   1_565 S
Mo8    N34     2.112   1_655 S
Mo8    N38     2.109   1_655 S
Mo9    Mo3     2.929   1_445 S
Mo9    Mo7     2.933   1_455 S
Mo9    Mo8     2.924   1_445 S
Mo9    N1      2.109   .     S
Mo9    N5      2.109   .     S
Mo9    N19     2.109   1_455 S
Mo9    N23     2.108   1_455 S
Mo9    N33     2.104   1_455 S
Mo9    N37     2.108   1_455 S
Mo10   Mo1     2.931   1_565 S
Mo10   Mo4     2.931   1_455 S
Mo10   Mo8     2.933   1_455 S
Mo10   Mo7     2.932   1_455 S
Mo10   N2      2.111   .     S
Mo10   N6      2.109   .     S
Mo10   N20     2.110   1_455 S
Mo10   N24     2.109   1_455 S
Mo10   N34     2.103   .     S
Mo10   N38     2.108   .     S
Mo11   Mo3     2.934   1_545 S
Mo11   Mo6     2.933   1_545 S
Mo11   N3      2.106   .     S
Mo11   N7      2.106   .     S
Mo11   N17     2.107   1_545 S
Mo11   N21     2.107   .     S
Mo11   N35     2.108   .     S
Mo11   N39     2.110   .     S
Mo12   N4      2.105   .     S
Mo12   N8      2.104   .     S
Mo12   N18     2.110   .     S
Mo12   N22     2.105   .     S
Mo12   N36     2.080   .     S
Mo12   N40     2.101   .     S
Si1    N5      1.758   .     S
Si1    N9      1.766   .     S
Si1    N25     1.766   .     S
Si1    N41     1.767   .     S
Si2    N6      1.758   .     S
Si2    N10     1.766   .     S
Si2    N26     1.767   .     S
Si2    N42     1.767   .     S
Si3    N7      1.757   .     S
Si3    N11     1.766   .     S
Si3    N27     1.767   .     S
Si3    N43     1.767   .     S
Si4    N8      1.758   .     S
Si4    N12     1.766   .     S
Si4    N28     1.766   .     S
Si4    N44     1.767   .     S
Si5    N1      1.758   .     S
Si5    N13     1.770   .     S
Si5    N29     1.775   .     S
Si5    N46     1.768   .     S
Si6    N2      1.761   .     S
Si6    N14     1.757   .     S
Si6    N30     1.772   .     S
Si6    N47     1.765   .     S
Si7    N3      1.760   .     S
Si7    N15     1.768   1_545 S
Si7    N31     1.765   .     S
Si7    N45     1.757   .     S
Si8    N4      1.758   .     S
Si8    N16     1.803   .     D
Si8    N32     1.765   .     S
Si9    N9      1.767   .     S
Si9    N21     1.757   .     S
Si9    N26     1.767   1_545 S
Si9    N43     1.767   .     S
Si10   N10     1.767   .     S
Si10   N22     1.757   .     S
Si10   N25     1.766   .     S
Si10   N44     1.767   .     S
Si11   N11     1.767   .     S
Si11   N23     1.757   .     S
Si11   N28     1.766   1_545 S
Si11   N41     1.766   1_655 S
Si12   N12     1.766   .     S
Si12   N24     1.758   .     S
Si12   N27     1.767   .     S
Si12   N42     1.766   1_655 S
Si13   N13     1.768   .     S
Si13   N17     1.759   1_545 S
Si13   N30     1.778   1_545 S
Si13   N45     1.757   .     S
Si14   N14     1.765   .     D
Si14   N18     1.758   .     S
Si14   N29     1.795   .     S
Si15   N15     1.768   1_545 S
Si15   N19     1.761   .     S
Si15   N32     1.760   1_545 S
Si15   N46     1.759   1_655 S
Si16   N16     1.784   .     S
Si16   N20     1.760   .     S
Si16   N31     1.772   .     S
Si16   N47     1.766   1_655 S
Si17   N10     1.767   .     S
Si17   N27     1.767   1_455 S
Si17   N37     1.757   1_455 S
Si17   N41     1.766   .     S
Si18   N9      1.766   1_565 S
Si18   N28     1.767   1_455 S
Si18   N38     1.758   .     S
Si18   N42     1.767   .     S
Si19   N12     1.766   .     S
Si19   N25     1.766   .     S
Si19   N39     1.759   .     S
Si19   N43     1.766   .     S
Si20   N11     1.766   1_565 S
Si20   N26     1.766   .     S
Si20   N40     1.757   .     S
Si20   N44     1.767   .     S
Si21   N14     1.742   1_655 S
Si21   N31     1.759   .     S
Si21   N33     1.755   .     S
Si21   N46     1.764   1_655 S
Si22   N13     1.757   1_565 S
Si22   N32     1.741   1_455 S
Si22   N34     1.756   .     S
Si22   N47     1.761   .     S
Si23   N16     1.769   .     S
Si23   N29     1.763   .     S
Si23   N35     1.756   .     S
Si23   N45     1.781   .     S
Si24   N15     1.809   .     D
Si24   N30     1.821   .     S
Si24   N36     1.761   .     S
N3     Mo3     2.107   1_545 S
N7     Mo3     2.112   1_545 S
N9     Si18    1.766   1_545 S
N11    Si20    1.766   1_545 S
N13    Si22    1.757   1_545 S
N14    Si21    1.742   1_455 S
N15    Si7     1.768   1_565 S
N15    Si15    1.768   1_565 S
N17    Mo1     2.108   1_565 S
N17    Mo11    2.107   1_565 S
N17    Si13    1.759   1_565 S
N19    Mo8     2.106   1_545 S
N19    Mo9     2.109   1_655 S
N19    Mo3     2.099   1_545 S
N20    Mo10    2.110   1_655 S
N21    Mo6     2.112   1_545 S
N23    Mo8     2.104   1_545 S
N23    Mo9     2.108   1_655 S
N23    Mo3     2.106   1_545 S
N24    Mo10    2.109   1_655 S
N26    Si9     1.767   1_565 S
N27    Si17    1.767   1_655 S
N28    Si11    1.766   1_565 S
N28    Si18    1.767   1_655 S
N30    Si13    1.778   1_565 S
N32    Si15    1.760   1_565 S
N32    Si22    1.741   1_655 S
N33    Mo2     2.111   1_655 S
N33    Mo9     2.104   1_655 S
N34    Mo1     2.102   1_565 S
N34    Mo8     2.112   1_455 S
N37    Si17    1.757   1_655 S
N37    Mo2     2.108   1_655 S
N37    Mo9     2.108   1_655 S
N38    Mo1     2.108   1_565 S
N38    Mo8     2.109   1_455 S
N41    Si11    1.766   1_455 S
N42    Si12    1.766   1_455 S
N46    Si15    1.759   1_455 S
N46    Si21    1.764   1_455 S
N47    Si16    1.766   1_455 S
Ni1    O4      1.867   .     S
Ni1    O6      1.865   1_655 S
Ni1    O9      1.865   1_665 S
Ni2    O3      1.867   .     S
Ni2    O5      1.866   1_655 S
Ni2    O10     1.865   1_655 S
Ni3    O2      1.866   .     S
Ni3    O8      1.866   .     S
Ni3    O11     1.864   1_565 S
Ni4    O1      1.865   .     S
Ni4    O7      1.865   .     S
Ni4    O12     1.867   .     S
Ni5    O14     1.880   1_655 S
Ni5    O17     1.883   1_665 S
Ni5    O24     1.884   .     S
Ni6    O13     1.880   1_655 S
Ni6    O18     1.880   1_655 S
Ni6    O23     1.881   .     S
Ni7    O16     1.889   .     S
Ni7    O19     1.885   1_565 S
Ni7    O22     1.882   .     S
Ni8    O15     1.867   .     S
Ni8    O20     1.871   .     S
Ni8    O21     1.872   .     S
Ni9    Te1     2.933   .     S
Ni9    Te2     2.928   1_545 S
Ni9    Te3     2.931   .     S
Ni9    O1      2.033   .     S
Ni9    O6      2.031   1_545 S
Ni9    O11     2.034   .     S
Ni9    O15     2.025   .     S
Ni9    O17     2.029   .     S
Ni9    O22     2.027   1_545 S
Ni10   Te1     2.931   .     S
Ni10   Te2     2.929   .     S
Ni10   Te4     2.927   .     S
Ni10   O2      2.031   .     S
Ni10   O5      2.036   .     S
Ni10   O12     2.029   .     S
Ni10   O16     2.039   .     S
Ni10   O18     2.022   .     S
Ni10   O21     2.026   .     S
Ni11   Te1     2.929   1_655 S
Ni11   Te3     2.925   .     S
Ni11   Te4     2.930   1_545 S
Ni11   O3      2.035   .     S
Ni11   O8      2.032   1_545 S
Ni11   O9      2.033   1_655 S
Ni11   O13     2.026   1_655 S
Ni11   O19     2.025   .     S
Ni11   O24     2.029   1_545 S
Ni12   Te2     2.931   1_655 S
Ni12   Te3     2.933   .     S
Ni12   Te4     2.935   .     S
Ni12   O4      2.030   .     S
Ni12   O7      2.032   .     S
Ni12   O10     2.037   1_655 S
Ni12   O14     2.022   1_655 S
Ni12   O20     2.051   .     S
Ni12   O23     2.022   .     S
Te1    Ni11    2.929   1_455 S
Te1    O1      1.951   .     S
Te1    O5      1.950   .     S
Te1    O9      1.953   .     S
Te1    O13     1.947   .     S
Te1    O17     1.948   .     S
Te1    O21     1.960   .     S
Te2    Ni12    2.931   1_455 S
Te2    Ni9     2.928   1_565 S
Te2    O2      1.952   .     S
Te2    O6      1.953   .     S
Te2    O10     1.951   .     S
Te2    O14     1.949   .     S
Te2    O18     1.950   .     S
Te2    O22     1.948   .     S
Te3    O3      1.951   .     S
Te3    O7      1.952   .     S
Te3    O11     1.953   .     S
Te3    O15     1.950   .     S
Te3    O19     1.948   .     S
Te3    O23     1.950   .     S
Te4    Ni11    2.930   1_565 S
Te4    O4      1.950   .     S
Te4    O8      1.948   .     S
Te4    O12     1.949   .     S
Te4    O16     1.959   .     S
Te4    O20     1.962   .     S
Te4    O24     1.945   .     S
O5     Ni2     1.866   1_455 S
O6     Ni9     2.031   1_565 S
O6     Ni1     1.865   1_455 S
O8     Ni11    2.032   1_565 S
O9     Ni11    2.033   1_455 S
O9     Ni1     1.865   1_445 S
O10    Ni12    2.037   1_455 S
O10    Ni2     1.865   1_455 S
O11    Ni3     1.864   1_545 S
O13    Ni6     1.880   1_455 S
O13    Ni11    2.026   1_455 S
O14    Ni12    2.022   1_455 S
O14    Ni5     1.880   1_455 S
O17    Ni5     1.883   1_445 S
O18    Ni6     1.880   1_455 S
O19    Ni7     1.885   1_545 S
O22    Ni9     2.027   1_565 S
O24    Ni11    2.029   1_565 S
